/batch
/config,noeldb,1     ! force off writing results to database
*get,_wallstrt,active,,time,wall
! ANSYS input file written by Workbench version 2020 R1
! File used for geometry attach: C:\Users\mende\Documents\repos\team_18\Project 2\Project 2 CAD\strut.SLDPRT
/title,unsaved_project--Static Structural (A5)
*DIM,_wb_ProjectScratch_dir,string,248
_wb_ProjectScratch_dir(1) = 'C:\Users\mende\AppData\Local\Temp\WB_PC_mende_24436_3\_ProjectScratch\Scr6F15\'
*DIM,_wb_SolverFiles_dir,string,248
_wb_SolverFiles_dir(1) = 'C:\Users\mende\AppData\Local\Temp\WB_PC_mende_24436_3\unsaved_project_files\dp0\SYS\MECH\'
*DIM,_wb_userfiles_dir,string,248
_wb_userfiles_dir(1) = 'C:\Users\mende\AppData\Local\Temp\WB_PC_mende_24436_3\unsaved_project_files\user_files\'
/com,--- Data in consistent NMM units. See Solving Units in the help system for more information.
/units,MPA
/nopr
/wb,file,start              !  signify a WB generated input file
/prep7
! Turn off shape checking because checks already performed inside WB mesher.
! See help system for more information.
SHPP,OFF,,NOWARN
/nolist
etcon,set             ! allow ANSYS to choose best KEYOP's for 180x elements
/com,*********** Nodes for the whole assembly ***********
nblock,3,,16388
(1i9,3e20.9e3)
        1    -1.777034221E+02     2.272041448E+02     3.440670591E+01
        2    -1.777034221E+02     2.272041448E+02     1.855932941E+02
        3    -1.777034221E+02     2.272041448E+02     3.639600312E+01
        4    -1.777034221E+02     2.272041448E+02     3.838530033E+01
        5    -1.777034221E+02     2.272041448E+02     4.037459754E+01
        6    -1.777034221E+02     2.272041448E+02     4.236389476E+01
        7    -1.777034221E+02     2.272041448E+02     4.435319197E+01
        8    -1.777034221E+02     2.272041448E+02     4.634248918E+01
        9    -1.777034221E+02     2.272041448E+02     4.833178640E+01
       10    -1.777034221E+02     2.272041448E+02     5.032108361E+01
       11    -1.777034221E+02     2.272041448E+02     5.231038082E+01
       12    -1.777034221E+02     2.272041448E+02     5.429967804E+01
       13    -1.777034221E+02     2.272041448E+02     5.628897525E+01
       14    -1.777034221E+02     2.272041448E+02     5.827827246E+01
       15    -1.777034221E+02     2.272041448E+02     6.026756967E+01
       16    -1.777034221E+02     2.272041448E+02     6.225686689E+01
       17    -1.777034221E+02     2.272041448E+02     6.424616410E+01
       18    -1.777034221E+02     2.272041448E+02     6.623546131E+01
       19    -1.777034221E+02     2.272041448E+02     6.822475853E+01
       20    -1.777034221E+02     2.272041448E+02     7.021405574E+01
! ... 14880 like lines cut
/wb,elem,start            !  set before creation of elements
/com,*********** Elements for Body 1 "strut" ***********
et,1,187
eblock,19,solid,,6783
(19i9)
        1        1        1        1        0        0        0        0       10        0        1      113      114      359     2718     3429     3437     3431     3435
     3441     4734
        1        1        1        1        0        0        0        0       10        0        2      113      920      114     2718     3433     3439     3429     3435
     7410     3441
        1        1        1        1        0        0        0        0       10        0        3      114      359     2718      920     3437     4734     3441     3439
     4731     7410
        1        1        1        1        0        0        0        0       10        0        4      113     2718      358     2717     3435     4729     3430     3434
    14899     4728
        1        1        1        1        0        0        0        0       10        0        5      113      919     2718     2717     3432     7403     3435     3434
     7402    14899
        1        1        1        1        0        0        0        0       10        0        6      113      920     2718      919     3433     7410     3435     3432
     7398     7403
        1        1        1        1        0        0        0        0       10        0        7      113      359      358     2718     3431     4725     3430     3435
     4734     4729
        1        1        1        1        0        0        0        0       10        0        8      358     2718     1633     2717     4729    11046     4727     4728
    14899    11045
        1        1        1        1        0        0        0        0       10        0        9      919     1633     2718     2717     7400    11046     7403     7402
    11045    14899
        1        1        1        1        0        0        0        0       10        0       10      919     1633      920     2718     7400     7406     7398     7403
    11046     7410
! ... 13547 like lines cut
!Material Id = {F9F0DEDD-D9D9-4E68-8860-2C30F84812D3}
/wb,elem,end               !  done creating elements
/com,*********** Send User Defined Coordinate System(s) ***********
csys,0
toffst,273.15,  ! Temperature offset from absolute zero
/com,*********** Set Reference Temperature ***********
tref,22.
/wb,mat,start              !  starting to send materials
/com,*********** Send Materials ***********
Temperature = 'TEMP' ! Temperature
MP,DENS,1,7.85e-09,	! tonne mm^-3
MP,ALPX,1,1.2e-05,	! C^-1
MP,C,1,434000000,	! mm^2 s^-2 C^-1
MP,KXX,1,60.5,	! tonne mm s^-3 C^-1
MP,RSVX,1,0.00017,	! ohm mm
MP,EX,1,200000,	! tonne s^-2 mm^-1
MP,NUXY,1,0.3,
MP,MURX,1,10000,

/wb,mat,end                !  done sending materials
!************************* Model Summary ********************
!strut,	Structural Steel,	matid,	1
!************************* End Model Summary ********************
! get the diagonal of the bounding box. Needed later for other things
*get,_xmin,node,,mnloc,x
*get,_ymin,node,,mnloc,y
*get,_zmin,node,,mnloc,z
*get,_xmax,node,,mxloc,x
*get,_ymax,node,,mxloc,y
*get,_zmax,node,,mxloc,z
_ASMDIAG=(_xmax-_xmin)*(_xmax-_xmin)+(_ymax-_ymin)*(_ymax-_ymin)+(_zmax-_zmin)*(_zmax-_zmin)
_ASMDIAG=SQRT(_ASMDIAG)
/wb,contact,start          !  starting to send contact
/wb,contact,end            !  done creating contacts
/golist
/wb,load,start             !  starting to send loads
CMBLOCK,_CM32_FIXEDSU,NODE,      120
(8i10)
       442       443       444       445       446       447       448       449
       450       451       702       703       704       705       706       707
       708       709       710       711      1013      1014      1015      1016
      1017      1018      1019      1020      1021      1022      1271      1272
      1273      1274      1275      1276      1277      1278      1279      1280
      5146      5147      5148      5149      5153      5154      5155      5158
      5159      5160      5166      5167      5168      5171      5172      5173
      5179      5180      5181      5184      5185      5189      5190      5191
      5195      5196      5197      5198      5202      5203      6297      6298
      6302      6306      6313      6317      6321      6326      6330      6335
      7878      7879      7880      7881      7882      7883      7884      7886
      7887      7888      7891      7892      7893      7897      7898      7899
      7904      7905      7906      7910      7911      7915      7916      7917
      7921      7922      7923      7929      7930      7931      9015      9016
      9017      9020      9025      9030      9033      9037      9041      9045

/com,*********** Fixed Supports ***********
CMBLOCK,_FIXEDSU,NODE,      120
(8i10)
       442       443       444       445       446       447       448       449
       450       451       702       703       704       705       706       707
       708       709       710       711      1013      1014      1015      1016
      1017      1018      1019      1020      1021      1022      1271      1272
      1273      1274      1275      1276      1277      1278      1279      1280
      5146      5147      5148      5149      5153      5154      5155      5158
      5159      5160      5166      5167      5168      5171      5172      5173
      5179      5180      5181      5184      5185      5189      5190      5191
      5195      5196      5197      5198      5202      5203      6297      6298
      6302      6306      6313      6317      6321      6326      6330      6335
      7878      7879      7880      7881      7882      7883      7884      7886
      7887      7888      7891      7892      7893      7897      7898      7899
      7904      7905      7906      7910      7911      7915      7916      7917
      7921      7922      7923      7929      7930      7931      9015      9016
      9017      9020      9025      9030      9033      9037      9041      9045

cmsel,s,_FIXEDSU
d,all,all
nsel,all
/com,*********** Define Force Using Surface Effect Elements ***********
local,12,0,0.,0.,0.,0.,0.,0.
csys,0
et,2,154
eblock,10,,,40
(15i9)
    12120        2        2        2       12      434      433      700      700     5094     5095      700     5101
    12121        2        2        2       12      436      435      698      698     5106     5107      698     5113
    12122        2        2        2       12      439      438      695      695     5121     5122      695     5129
    12123        2        2        2       12      441      440      693      693     5134     5135      693     5141
    12124        2        2        2       12      693      440      694      694     5135     5136      694     6253
    12125        2        2        2       12      695      438      696      696     5122     5123      696     6262
    12126        2        2        2       12      698      435      699      699     5107     5108      699     6278
    12127        2        2        2       12      700      433      701      701     5095     5096      701     6288
    12128        2        2        2       12      692      701      432      432     6249     5090      432     5089
    12129        2        2        2       12      437      436      697      697     5111     5112      697     5118
    12130        2        2        2       12      438      437      696      696     5116     5117      696     5123
    12131        2        2        2       12      432      441      692      692     5088     5140      692     5089
    12132        2        2        2       12      692      441      693      693     5140     5141      693     6248
    12133        2        2        2       12      696      437      697      697     5117     5118      697     6268
    12134        2        2        2       12      697      436      698      698     5112     5113      698     6273
    12135        2        2        2       12      432      701      433      433     5090     5096      433     5087
    12136        2        2        2       12      435      434      699      699     5099     5100      699     5108
    12137        2        2        2       12      440      439      694      694     5127     5128      694     5136
    12138        2        2        2       12      694      439      695      695     5128     5129      695     6257
    12139        2        2        2       12      699      434      700      700     5100     5101      700     6283
! ... 21 like lines cut
esel,s,type,,2
keyop,2,2,1                ! Apply load in local coordinate system
keyop,2,7,1                ! Use original area so load is constant in large deformation
keyop,2,11,2               ! Use real and not project area
esel,all
/gst,on,on
fini
*get,_numnode,node,0,count
*get,_numelem,elem,0,count
*get, _MAXELEMNUM, elem, 0, NUM, MAX
*get, _MAXNODENUM, node, 0, NUM, MAX
*get, _MAXELEMTYPE, etyp, 0, NUM, MAX
*get, _MAXREALCONST, real, 0, NUM, MAX
/go
/wb,load,end               !  done creating loads
/com,--- Number of total nodes = %_numnode%
/com,--- Number of contact elements = 40
/com,--- Number of spring elements = 0
/com,--- Number of bearing elements = 0
/com,--- Number of solid elements = 6783
/com,--- Number of condensed parts = 0
/com,--- Number of total elements = %_numelem%
*get,_wallbsol,active,,time,wall
/com,****************************************************************************
/com,*************************    SOLUTION       ********************************
/com,****************************************************************************
/solu
antype,0                   ! static analysis
_thickRatio=  0     ! Ratio of thick parts in the model
eqsl,sparse,,,,,1
cntr,print,1               ! print out contact info and also make no initial contact an error
nldiag,cont,iter           ! print out contact info each equilibrium iteration
rescontrol,linear,last           ! Turn on restart files due to future eigen analysis intent
/com,****************************************************
/com,******************* SOLVE FOR LS 1 OF 1 ****************
esel,s,type,,2
nsle
sfe,all,1,pres,1,0.
sfe,all,2,pres,1,0.
sfe,all,3,pres,1,-1.32640114910946
nsel,all
esel,all
/nopr
/gopr
nsub,1,1,1
time,1.
outres,erase
outres,all,none
outres,nsol,all,
outres,rsol,all
outres,eangl,all
outres,etmp,all
outres,veng,all
outres,strs,all,
outres,epel,all,
outres,eppl,all,
outres,cont,all,
! *********** WB SOLVE COMMAND ***********
! check interactive state
*get,ANSINTER_,active,,int
*if,ANSINTER_,ne,0,then
/eof
*endif
solve
/com *************** Write FE CONNECTORS ********* 
CEWRITE,file,ce,,INTE
/com,****************************************************
/com,*************** FINISHED SOLVE FOR LS 1 *************
*get,_wallasol,active,,time,wall
/nopr
*get,_numnode,node,0,count
*get,_numelem,elem,0,count
*get, _MAXELEMNUM, elem, 0, NUM, MAX
*get, _MAXNODENUM, node, 0, NUM, MAX,,,INTERNAL
*get, _MAXELEMTYPE, etyp, 0, NUM, MAX
*get, _MAXREALCONST, real, 0, NUM, MAX
/gopr
/post1
xmlo,ENCODING,ISO-8859-1
xmlo,parm
/xml,parm,xml
fini
/gopr
*get,_walldone,active,,time,wall
_preptime=(_wallbsol-_wallstrt)*3600
_solvtime=(_wallasol-_wallbsol)*3600
_posttime=(_walldone-_wallasol)*3600
_totaltim=(_walldone-_wallstrt)*3600
*get,_dlbratio,active,0,solu,dlbr
*get,_combtime,active,0,solu,comb
/com,--- Number of total nodes = %_numnode%
/com,--- Number of total elements = %_numelem%
/com,--- Element load balance ratio = %_dlbratio%
/com,--- Time to combine distributed files = %_combtime%
/wb,file,end               ! done with WB generated input
