
 ANSYS Academic Research                           


 *------------------------------------------------------------------*
 |                                                                  |
 |   W E L C O M E   T O   T H E   A N S Y S (R)  P R O G R A M     |
 |                                                                  |
 *------------------------------------------------------------------*




 ***************************************************************
 *            ANSYS 2020 R1          LEGAL NOTICES             *
 ***************************************************************
 *                                                             *
 * Copyright 1971-2020 ANSYS, Inc.  All rights reserved.       *
 * Unauthorized use, distribution or duplication is            *
 * prohibited.                                                 *
 *                                                             *
 * Ansys is a registered trademark of ANSYS, Inc. or its       *
 * subsidiaries in the United States or other countries.       *
 * See the ANSYS, Inc. online documentation or the ANSYS, Inc. *
 * documentation CD or online help for the complete Legal      *
 * Notice.                                                     *
 *                                                             *
 ***************************************************************
 *                                                             *
 * THIS ANSYS SOFTWARE PRODUCT AND PROGRAM DOCUMENTATION       *
 * INCLUDE TRADE SECRETS AND CONFIDENTIAL AND PROPRIETARY      *
 * PRODUCTS OF ANSYS, INC., ITS SUBSIDIARIES, OR LICENSORS.    *
 * The software products and documentation are furnished by    *
 * ANSYS, Inc. or its subsidiaries under a software license    *
 * agreement that contains provisions concerning               *
 * non-disclosure, copying, length and nature of use,          *
 * compliance with exporting laws, warranties, disclaimers,    *
 * limitations of liability, and remedies, and other           *
 * provisions.  The software products and documentation may be *
 * used, disclosed, transferred, or copied only in accordance  *
 * with the terms and conditions of that software license      *
 * agreement.                                                  *
 *                                                             *
 * ANSYS, Inc. is a UL registered                              *
 * ISO 9001:2015 company.                                      *
 *                                                             *
 ***************************************************************
 *                                                             *
 * This product is subject to U.S. laws governing export and   *
 * re-export.                                                  *
 *                                                             *
 * For U.S. Government users, except as specifically granted   *
 * by the ANSYS, Inc. software license agreement, the use,     *
 * duplication, or disclosure by the United States Government  *
 * is subject to restrictions stated in the ANSYS, Inc.        *
 * software license agreement and FAR 12.212 (for non-DOD      *
 * licenses).                                                  *
 *                                                             *
 ***************************************************************

 2020 R1 
     
 Point Releases and Patches installed:   
     
 ANSYS, Inc. Products 2020 R1
 SpaceClaim 2020 R1  
 AIM 2020 R1 
 Live (includes SpaceClaim) 2020 R1  
 Autodyn 2020 R1 
 LS-DYNA 2020 R1 
 CFD-Post only 2020 R1   
 CFX (includes CFD-Post) 2020 R1 
 Chemkin 2020 R1 
 EnSight 2020 R1 
 FENSAP-ICE 2020 R1  
 Fluent (includes CFD-Post) 2020 R1  
 Forte 2020 R1   
 Polyflow (includes CFD-Post) 2020 R1
 TurboGrid 2020 R1   
 ICEM CFD 2020 R1
 Aqwa 2020 R1
 Customization Files for User Programmable Features 2020 R1  
 Mechanical Products 2020 R1 
 Additive 2020 R1
 ANSYS Sherlock 2020 R1  
 Icepak (includes CFD-Post) 2020 R1  
 Remote Solve Manager Standalone Services 2020 R1
 Viewer 2020 R1  
 ACIS Geometry Interface 2020 R1 
 AutoCAD Geometry Interface 2020 R1  
 Catia, Version 4 Geometry Interface 2020 R1 
 Catia, Version 5 Geometry Interface 2020 R1 
 Catia, Version 6 Geometry Interface 2020 R1 
 Creo Elements/Direct Modeling Geometry Interface 2020 R1
 Creo Parametric Geometry Interface 2020 R1  
 Inventor Geometry Interface 2020 R1 
 JTOpen Geometry Interface 2020 R1   
 NX Geometry Interface 2020 R1   
 Parasolid Geometry Interface  2020 R1   
 Solid Edge Geometry Interface 2020 R1   
 SOLIDWORKS Geometry Interface 2020 R1   
 ANSYS, Inc. License Manager 2020 R1 


          *****  ANSYS COMMAND LINE ARGUMENTS  *****
  BATCH MODE REQUESTED (-b)    = NOLIST
  INPUT FILE COPY MODE (-c)    = COPY
  SHARED MEMORY PARALLEL REQUESTED
    SINGLE PROCESS WITH SINGLE THREAD REQUESTED
    TOTAL OF     1 CORES REQUESTED
  DESIGNXPLORER REQUESTED
  INPUT FILE NAME              = C:\Users\mende\Documents\repos\team_18\team challenge 2\100kN Mendel\_ProjectScratch\ScrC655\dummy.dat
  OUTPUT FILE NAME             = C:\Users\mende\Documents\repos\team_18\team challenge 2\100kN Mendel\_ProjectScratch\ScrC655\solve.out
  START-UP FILE MODE           = NOREAD
  STOP FILE MODE               = NOREAD

 RELEASE= 2020 R1              BUILD= 20.1      UP20191203   VERSION=WINDOWS x64 
 CURRENT JOBNAME=file  18:25:15  OCT 06, 2020 CP=      0.188


 PARAMETER _DS_PROGRESS =     999.0000000    

 /INPUT FILE= ds.dat  LINE=       0



 DO NOT WRITE ELEMENT RESULTS INTO DATABASE

 *GET  _WALLSTRT  FROM  ACTI  ITEM=TIME WALL  VALUE=  18.4208333    

 TITLE= 
 100kn--Static Structural (A5)                                                 


 SET PARAMETER DIMENSIONS ON  _WB_PROJECTSCRATCH_DIR
  TYPE=STRI  DIMENSIONS=      248        1        1

 PARAMETER _WB_PROJECTSCRATCH_DIR(1) = C:\Users\mende\Documents\repos\team_18\team challenge 2\100kN Mendel\_ProjectScratch\ScrC655\

 SET PARAMETER DIMENSIONS ON  _WB_SOLVERFILES_DIR
  TYPE=STRI  DIMENSIONS=      248        1        1

 PARAMETER _WB_SOLVERFILES_DIR(1) = C:\Users\mende\Documents\repos\team_18\team challenge 2\100kN Mendel\100kn_files\dp1\SYS\MECH\

 SET PARAMETER DIMENSIONS ON  _WB_USERFILES_DIR
  TYPE=STRI  DIMENSIONS=      248        1        1

 PARAMETER _WB_USERFILES_DIR(1) = C:\Users\mende\Documents\repos\team_18\team challenge 2\100kN Mendel\100kn_files\user_files\
 --- Data in consistent NMM units. See Solving Units in the help system for more

 MPA UNITS SPECIFIED FOR INTERNAL    
  LENGTH      = MILLIMETERS (mm)
  MASS        = TONNE (Mg)
  TIME        = SECONDS (sec)
  TEMPERATURE = CELSIUS (C)
  TOFFSET     = 273.0
  FORCE       = NEWTON (N)
  HEAT        = MILLIJOULES (mJ)

 INPUT  UNITS ARE ALSO SET TO MPA 

 *** ANSYS - ENGINEERING ANALYSIS SYSTEM  RELEASE 2020 R1          20.1     ***
 ANSYS Academic Research                           
 00608699  VERSION=WINDOWS x64   18:25:15  OCT 06, 2020 CP=      0.219

 100kn--Static Structural (A5)                                                 



          ***** ANSYS ANALYSIS DEFINITION (PREP7) *****
 *********** Nodes for the whole assembly ***********
 *********** Elements for Body 1 "1-1" ***********
 *********** Elements for Body 2 "2-2" ***********
 *********** Elements for Body 3 "3-2" ***********
 *********** Elements for Body 4 "4-2" ***********
 *********** Send User Defined Coordinate System(s) ***********
 *********** Set Reference Temperature ***********
 *********** Send Materials ***********
 *********** Create Contact "Contact Region" ***********
             Real Constant Set For Above Contact Is 6 & 5
 *********** Create Contact "Contact Region 2" ***********
             Real Constant Set For Above Contact Is 8 & 7
 *********** Create Contact "Contact Region 3" ***********
             Real Constant Set For Above Contact Is 10 & 9
 *********** Send Named Selection as Node Component ***********
 *********** Send Named Selection as Node Component ***********
 *********** Fixed Supports ***********
 *********** Define Force Using Surface Effect Elements ***********


 ***** ROUTINE COMPLETED *****  CP =         0.406


 --- Number of total nodes = 52091
 --- Number of contact elements = 1398
 --- Number of spring elements = 0
 --- Number of bearing elements = 0
 --- Number of solid elements = 24753
 --- Number of condensed parts = 0
 --- Number of total elements = 26151

 *GET  _WALLBSOL  FROM  ACTI  ITEM=TIME WALL  VALUE=  18.4211111    
 ****************************************************************************
 *************************    SOLUTION       ********************************
 ****************************************************************************

 *****  ANSYS SOLUTION ROUTINE  *****


 PERFORM A STATIC ANALYSIS
  THIS WILL BE A NEW ANALYSIS

 PARAMETER _THICKRATIO =     0.000000000    

 USE SPARSE MATRIX DIRECT SOLVER

 CONTACT INFORMATION PRINTOUT LEVEL       1

 NLDIAG: Nonlinear diagnostics CONT option is set to ON. 
         Writing frequency : each ITERATION.

 DO NOT SAVE ANY RESTART FILES AT ALL
 ****************************************************
 ******************* SOLVE FOR LS 1 OF 1 ****************

 SELECT       FOR ITEM=TYPE COMPONENT=    
  IN RANGE        11 TO         11 STEP          1

         62  ELEMENTS (OF      26151  DEFINED) SELECTED BY  ESEL  COMMAND.

 SELECT      ALL NODES HAVING ANY ELEMENT IN ELEMENT SET.

        189 NODES (OF      52091  DEFINED) SELECTED FROM
       62 SELECTED ELEMENTS BY NSLE COMMAND.

 SPECIFIED SURFACE LOAD PRES FOR ALL SELECTED ELEMENTS  LKEY =  1   KVAL = 1
     VALUES =     0.0000         0.0000         0.0000         0.0000    

 SPECIFIED SURFACE LOAD PRES FOR ALL SELECTED ELEMENTS  LKEY =  2   KVAL = 1
     VALUES =    -17.241        -17.241        -17.241        -17.241    

 SPECIFIED SURFACE LOAD PRES FOR ALL SELECTED ELEMENTS  LKEY =  3   KVAL = 1
     VALUES =     0.0000         0.0000         0.0000         0.0000    

 ALL SELECT   FOR ITEM=NODE COMPONENT=    
  IN RANGE         1 TO      52091 STEP          1

      52091  NODES (OF      52091  DEFINED) SELECTED BY NSEL  COMMAND.

 ALL SELECT   FOR ITEM=ELEM COMPONENT=    
  IN RANGE         1 TO      44367 STEP          1

      26151  ELEMENTS (OF      26151  DEFINED) SELECTED BY  ESEL  COMMAND.

 PRINTOUT RESUMED BY /GOP

 USE       1 SUBSTEPS INITIALLY THIS LOAD STEP FOR ALL  DEGREES OF FREEDOM
 FOR AUTOMATIC TIME STEPPING:
   USE      1 SUBSTEPS AS A MAXIMUM
   USE      1 SUBSTEPS AS A MINIMUM

 TIME=  1.0000    

 ERASE THE CURRENT DATABASE OUTPUT CONTROL TABLE.


 WRITE ALL  ITEMS TO THE DATABASE WITH A FREQUENCY OF NONE
   FOR ALL APPLICABLE ENTITIES

 WRITE NSOL ITEMS TO THE DATABASE WITH A FREQUENCY OF ALL 
   FOR ALL APPLICABLE ENTITIES

 WRITE RSOL ITEMS TO THE DATABASE WITH A FREQUENCY OF ALL 
   FOR ALL APPLICABLE ENTITIES

 WRITE EANG ITEMS TO THE DATABASE WITH A FREQUENCY OF ALL 
   FOR ALL APPLICABLE ENTITIES

 WRITE ETMP ITEMS TO THE DATABASE WITH A FREQUENCY OF ALL 
   FOR ALL APPLICABLE ENTITIES

 WRITE VENG ITEMS TO THE DATABASE WITH A FREQUENCY OF ALL 
   FOR ALL APPLICABLE ENTITIES

 WRITE STRS ITEMS TO THE DATABASE WITH A FREQUENCY OF ALL 
   FOR ALL APPLICABLE ENTITIES

 WRITE EPEL ITEMS TO THE DATABASE WITH A FREQUENCY OF ALL 
   FOR ALL APPLICABLE ENTITIES

 WRITE EPPL ITEMS TO THE DATABASE WITH A FREQUENCY OF ALL 
   FOR ALL APPLICABLE ENTITIES

 WRITE CONT ITEMS TO THE DATABASE WITH A FREQUENCY OF ALL 
   FOR ALL APPLICABLE ENTITIES

 *GET  ANSINTER_  FROM  ACTI  ITEM=INT        VALUE=  0.00000000    

 *IF  ANSINTER_                         ( =   0.00000     )  NE  
      0                                 ( =   0.00000     )  THEN    

 *ENDIF

 *****  ANSYS SOLVE    COMMAND  *****

 *** WARNING ***                         CP =       0.438   TIME= 18:25:16
 Element shape checking is currently inactive.  Issue SHPP,ON or         
 SHPP,WARN to reactivate, if desired.                                    

 *** NOTE ***                            CP =       0.469   TIME= 18:25:16
 The model data was checked and warning messages were found.             
  Please review output or errors file (                                  
 C:\Users\mende\Documents\repos\team_18\team challenge 2\100kN           
 Mendel\_ProjectScratch\ScrC655\file.err ) for these warning messages.   

 *** SELECTION OF ELEMENT TECHNOLOGIES FOR APPLICABLE ELEMENTS ***
      --- GIVE SUGGESTIONS AND RESET THE KEY OPTIONS ---

 ELEMENT TYPE    1 IS SOLID187. IT IS NOT ASSOCIATED WITH FULLY INCOMPRESSIBLE
 HYPERELASTIC MATERIALS. NO SUGGESTION IS AVAILABLE AND NO RESETTING IS NEEDED.

 ELEMENT TYPE    2 IS SOLID187. IT IS NOT ASSOCIATED WITH FULLY INCOMPRESSIBLE
 HYPERELASTIC MATERIALS. NO SUGGESTION IS AVAILABLE AND NO RESETTING IS NEEDED.

 ELEMENT TYPE    3 IS SOLID187. IT IS NOT ASSOCIATED WITH FULLY INCOMPRESSIBLE
 HYPERELASTIC MATERIALS. NO SUGGESTION IS AVAILABLE AND NO RESETTING IS NEEDED.

 ELEMENT TYPE    4 IS SOLID187. IT IS NOT ASSOCIATED WITH FULLY INCOMPRESSIBLE
 HYPERELASTIC MATERIALS. NO SUGGESTION IS AVAILABLE AND NO RESETTING IS NEEDED.



 *** ANSYS - ENGINEERING ANALYSIS SYSTEM  RELEASE 2020 R1          20.1     ***
 ANSYS Academic Research                           
 00608699  VERSION=WINDOWS x64   18:25:16  OCT 06, 2020 CP=      0.469

 100kn--Static Structural (A5)                                                 



                       S O L U T I O N   O P T I O N S

   PROBLEM DIMENSIONALITY. . . . . . . . . . . . .3-D                  
   DEGREES OF FREEDOM. . . . . . UX   UY   UZ  
   ANALYSIS TYPE . . . . . . . . . . . . . . . . .STATIC (STEADY-STATE)
   OFFSET TEMPERATURE FROM ABSOLUTE ZERO . . . . .  273.15    
   EQUATION SOLVER OPTION. . . . . . . . . . . . .SPARSE             
   GLOBALLY ASSEMBLED MATRIX . . . . . . . . . . .SYMMETRIC  

 *** WARNING ***                         CP =       0.484   TIME= 18:25:16
 Material number 11 (used by element 44306) should normally have at      
 least one MP or one TB type command associated with it.  Output of      
 energy by material may not be available.                                

 *** NOTE ***                            CP =       0.484   TIME= 18:25:16
 The step data was checked and warning messages were found.              
  Please review output or errors file (                                  
 C:\Users\mende\Documents\repos\team_18\team challenge 2\100kN           
 Mendel\_ProjectScratch\ScrC655\file.err ) for these warning messages.   

 *** NOTE ***                            CP =       0.484   TIME= 18:25:16
 The conditions for direct assembly have been met.  No .emat or .erot    
 files will be produced.                                                 

                      L O A D   S T E P   O P T I O N S

   LOAD STEP NUMBER. . . . . . . . . . . . . . . .     1
   TIME AT END OF THE LOAD STEP. . . . . . . . . .  1.0000    
   NUMBER OF SUBSTEPS. . . . . . . . . . . . . . .     1
   STEP CHANGE BOUNDARY CONDITIONS . . . . . . . .    NO
   PRINT OUTPUT CONTROLS . . . . . . . . . . . . .NO PRINTOUT
   DATABASE OUTPUT CONTROLS
      ITEM     FREQUENCY   COMPONENT
       ALL       NONE               
      NSOL        ALL               
      RSOL        ALL               
      EANG        ALL               
      ETMP        ALL               
      VENG        ALL               
      STRS        ALL               
      EPEL        ALL               
      EPPL        ALL               
      CONT        ALL               


 SOLUTION MONITORING INFO IS WRITTEN TO FILE= file.mntr                                                                                                                                                                                                                                                           

 *** NOTE ***                            CP =       0.703   TIME= 18:25:16
 Symmetric Deformable- deformable contact pair identified by real        
 constant set 5 and contact element type 5 has been set up.  The         
 companion pair has real constant set ID 6.  Both pairs should have the  
 same behavior.                                                          
 *WARNING*: ANSYS has found the contact pairs have similar mesh          
 patterns.  ANSYS will keep the current pair and deactivate its          
 companion pair.                                                         
 Linear contact is defined
 Contact algorithm: Augmented Lagrange method
 Contact detection at: Gauss integration point
 Contact stiffness factor FKN                  10.000    
 The resulting initial contact stiffness      0.14889E+07
 Default penetration tolerance factor FTOLN   0.10000    
 The resulting penetration tolerance           2.4540    
 Default opening contact stiffness OPSF will be used.
 Default tangent stiffness factor FKT          1.0000    
 Use constant contact stiffness
 Default Max. friction stress TAUMAX          0.10000E+21
 Average contact surface length                17.332    
 Average contact pair depth                    24.540    
 Default pinball region factor PINB           0.25000    
 The resulting pinball region                  6.1351    
 Initial penetration/gap is excluded.
 Bonded contact (always) is defined.

 *** NOTE ***                            CP =       0.703   TIME= 18:25:16
 Max.  Initial penetration 1.705302566E-13 was detected between contact  
 element 43226 and target element 43503.                                 
 ****************************************
  

 *** NOTE ***                            CP =       0.703   TIME= 18:25:16
 Symmetric Deformable- deformable contact pair identified by real        
 constant set 6 and contact element type 5 has been set up.  The         
 companion pair has real constant set ID 5.  Both pairs should have the  
 same behavior.                                                          
 ANSYS will deactivate the current pair and keep its companion pair,     
 resulting in asymmetric contact.                                        
 Linear contact is defined
 Contact algorithm: Augmented Lagrange method
 Contact detection at: Gauss integration point
 Contact stiffness factor FKN                  10.000    
 The resulting initial contact stiffness      0.14889E+07
 Default penetration tolerance factor FTOLN   0.10000    
 The resulting penetration tolerance           2.6865    
 Default opening contact stiffness OPSF will be used.
 Default tangent stiffness factor FKT          1.0000    
 Use constant contact stiffness
 Default Max. friction stress TAUMAX          0.10000E+21
 Average contact surface length                17.340    
 Average contact pair depth                    26.865    
 Default pinball region factor PINB           0.25000    
 The resulting pinball region                  6.7162    
 Initial penetration/gap is excluded.
 Bonded contact (always) is defined.

 *** NOTE ***                            CP =       0.703   TIME= 18:25:16
 Max.  Initial penetration 8.526512829E-14 was detected between contact  
 element 43377 and target element 43037.                                 
 ****************************************
  

 *** NOTE ***                            CP =       0.703   TIME= 18:25:16
 Symmetric Deformable- deformable contact pair identified by real        
 constant set 7 and contact element type 7 has been set up.  The         
 companion pair has real constant set ID 8.  Both pairs should have the  
 same behavior.                                                          
 ANSYS will deactivate the current pair and keep its companion pair,     
 resulting in asymmetric contact.                                        
 Linear contact is defined
 Contact algorithm: Augmented Lagrange method
 Contact detection at: Gauss integration point
 Contact stiffness factor FKN                  10.000    
 The resulting initial contact stiffness      0.14926E+07
 Default penetration tolerance factor FTOLN   0.10000    
 The resulting penetration tolerance           2.6800    
 Default opening contact stiffness OPSF will be used.
 Default tangent stiffness factor FKT          1.0000    
 Use constant contact stiffness
 Default Max. friction stress TAUMAX          0.10000E+21
 Average contact surface length                17.393    
 Average contact pair depth                    26.800    
 Default pinball region factor PINB           0.25000    
 The resulting pinball region                  6.6999    
 Initial penetration/gap is excluded.
 Bonded contact (always) is defined.

 *** NOTE ***                            CP =       0.703   TIME= 18:25:16
 Max.  Initial penetration 4.547473509E-13 was detected between contact  
 element 43626 and target element 43864.                                 
 ****************************************
  

 *** NOTE ***                            CP =       0.703   TIME= 18:25:16
 Symmetric Deformable- deformable contact pair identified by real        
 constant set 8 and contact element type 7 has been set up.  The         
 companion pair has real constant set ID 7.  Both pairs should have the  
 same behavior.                                                          
 ANSYS will keep the current pair and deactivate its companion pair,     
 resulting in asymmetric contact.                                        
 Linear contact is defined
 Contact algorithm: Augmented Lagrange method
 Contact detection at: Gauss integration point
 Contact stiffness factor FKN                  10.000    
 The resulting initial contact stiffness      0.14926E+07
 Default penetration tolerance factor FTOLN   0.10000    
 The resulting penetration tolerance           2.5754    
 Default opening contact stiffness OPSF will be used.
 Default tangent stiffness factor FKT          1.0000    
 Use constant contact stiffness
 Default Max. friction stress TAUMAX          0.10000E+21
 Average contact surface length                17.443    
 Average contact pair depth                    25.754    
 Default pinball region factor PINB           0.25000    
 The resulting pinball region                  6.4385    
 Initial penetration/gap is excluded.
 Bonded contact (always) is defined.

 *** NOTE ***                            CP =       0.703   TIME= 18:25:16
 Max.  Initial penetration 2.273736754E-13 was detected between contact  
 element 43735 and target element 43576.                                 
 ****************************************
  

 *** NOTE ***                            CP =       0.703   TIME= 18:25:16
 Symmetric Deformable- deformable contact pair identified by real        
 constant set 9 and contact element type 9 has been set up.  The         
 companion pair has real constant set ID 10.  Both pairs should have     
 the same behavior.                                                      
 *WARNING*: ANSYS has found the contact pairs have similar mesh          
 patterns.  ANSYS will keep the current pair and deactivate its          
 companion pair.                                                         
 Linear contact is defined
 Contact algorithm: Augmented Lagrange method
 Contact detection at: Gauss integration point
 Contact stiffness factor FKN                  10.000    
 The resulting initial contact stiffness      0.15133E+07
 Default penetration tolerance factor FTOLN   0.10000    
 The resulting penetration tolerance           2.3650    
 Default opening contact stiffness OPSF will be used.
 Default tangent stiffness factor FKT          1.0000    
 Use constant contact stiffness
 Default Max. friction stress TAUMAX          0.10000E+21
 Average contact surface length                16.847    
 Average contact pair depth                    23.650    
 Default pinball region factor PINB           0.25000    
 The resulting pinball region                  5.9124    
 Initial penetration/gap is excluded.
 Bonded contact (always) is defined.

 *** NOTE ***                            CP =       0.703   TIME= 18:25:16
 Max.  Initial penetration 9.094947018E-13 was detected between contact  
 element 44043 and target element 44234.                                 
 ****************************************
  

 *** NOTE ***                            CP =       0.703   TIME= 18:25:16
 Symmetric Deformable- deformable contact pair identified by real        
 constant set 10 and contact element type 9 has been set up.  The        
 companion pair has real constant set ID 9.  Both pairs should have the  
 same behavior.                                                          
 ANSYS will deactivate the current pair and keep its companion pair,     
 resulting in asymmetric contact.                                        
 Linear contact is defined
 Contact algorithm: Augmented Lagrange method
 Contact detection at: Gauss integration point
 Contact stiffness factor FKN                  10.000    
 The resulting initial contact stiffness      0.15133E+07
 Default penetration tolerance factor FTOLN   0.10000    
 The resulting penetration tolerance           2.6433    
 Default opening contact stiffness OPSF will be used.
 Default tangent stiffness factor FKT          1.0000    
 Use constant contact stiffness
 Default Max. friction stress TAUMAX          0.10000E+21
 Average contact surface length                16.854    
 Average contact pair depth                    26.433    
 Default pinball region factor PINB           0.25000    
 The resulting pinball region                  6.6083    
 Initial penetration/gap is excluded.
 Bonded contact (always) is defined.

 *** NOTE ***                            CP =       0.703   TIME= 18:25:16
 Max.  Initial penetration 4.547473509E-13 was detected between contact  
 element 44141 and target element 43966.                                 
 ****************************************
  
  
  

  
 *************************************************
  SUMMARY FOR CONTACT PAIR IDENTIFIED BY REAL CONSTANT SET           5
 Max.  Penetration of -2.842170943E-14 has been detected between contact 
 element 43135 and target element 43427.                                 
  
 Max.  Geometrical gap of 5.684341886E-14 has been detected between      
 contact element 43210 and target element 43482.                         
  
 Max.  Geometrical penetration of -1.421085472E-13 has been detected     
 between contact element 43210 and target element 43482.                 
 For total 136 contact elements, there are 136 elements are in contact.  
 There are 136 elements are in sticking.                                 
 Contacting area 13300.                                                  
 Max.  Pinball distance 6.13510237.                                      
 One of the contact searching regions contains at least 22 target        
 elements.                                                               
 Max.  Pressure/force 4.231826852E-08.                                   
 Max.  Normal stiffness 1488941.71.                                      
 Min.  Normal stiffness 1488941.71.                                      
 Max.  Tangential stiffness 1581127.17.                                  
 Min.  Tangential stiffness 1581127.17.                                  
 *************************************************
  
 *************************************************
  SUMMARY FOR CONTACT PAIR IDENTIFIED BY REAL CONSTANT SET           6

 *** NOTE ***                            CP =       1.938   TIME= 18:25:17
 Contact pair is inactive.                                               
  
 *************************************************
  SUMMARY FOR CONTACT PAIR IDENTIFIED BY REAL CONSTANT SET           7

 *** NOTE ***                            CP =       1.938   TIME= 18:25:17
 Contact pair is inactive.                                               
  
 *************************************************
  SUMMARY FOR CONTACT PAIR IDENTIFIED BY REAL CONSTANT SET           8
 Max.  Penetration of -2.273736754E-13 has been detected between contact 
 element 43795 and target element 43526.                                 
  
 Max.  Geometrical gap of 4.547473509E-13 has been detected between      
 contact element 43744 and target element 43623.                         
 For total 110 contact elements, there are 110 elements are in contact.  
 There are 110 elements are in sticking.                                 
 Contacting area 10800.                                                  
 Max.  Pinball distance 6.43848282.                                      
 One of the contact searching regions contains at least 15 target        
 elements.                                                               
 Max.  Pressure/force -3.393681802E-07.                                  
 Max.  Normal stiffness 1492557.04.                                      
 Min.  Normal stiffness 1492557.04.                                      
 Max.  Tangential stiffness 1652770.19.                                  
 Min.  Tangential stiffness 1652770.19.                                  
 *************************************************
  
 *************************************************
  SUMMARY FOR CONTACT PAIR IDENTIFIED BY REAL CONSTANT SET           9
 Max.  Penetration of -4.547473509E-13 has been detected between contact 
 element 44074 and target element 44263.                                 
  
 Max.  Geometrical penetration of -9.094947018E-13 has been detected     
 between contact element 44043 and target element 44234.                 
 For total 88 contact elements, there are 88 elements are in contact.    
 There are 88 elements are in sticking.                                  
 Contacting area 8300.00001.                                             
 Max.  Pinball distance 5.91243635.                                      
 One of the contact searching regions contains at least 18 target        
 elements.                                                               
 Max.  Pressure/force 6.881489605E-07.                                   
 Max.  Normal stiffness 1513255.57.                                      
 Min.  Normal stiffness 1513255.57.                                      
 Max.  Tangential stiffness 1593267.24.                                  
 Min.  Tangential stiffness 1593267.24.                                  
 *************************************************
  
 *************************************************
  SUMMARY FOR CONTACT PAIR IDENTIFIED BY REAL CONSTANT SET          10

 *** NOTE ***                            CP =       1.938   TIME= 18:25:17
 Contact pair is inactive.                                               


                         ***********  PRECISE MASS SUMMARY  ***********

   TOTAL RIGID BODY MASS MATRIX ABOUT ORIGIN
               Translational mass               |   Coupled translational/rotational mass
        0.33912        0.0000        0.0000     |     0.0000        355.69       -207.57    
         0.0000       0.33912        0.0000     |    -355.69        0.0000        310.44    
         0.0000        0.0000       0.33912     |     207.57       -310.44        0.0000    
     ------------------------------------------ | ------------------------------------------
                                                |         Rotational mass (inertia)
                                                |    0.52853E+06  -0.19002E+06  -0.32561E+06
                                                |   -0.19002E+06   0.10776E+07  -0.21771E+06
                                                |   -0.32561E+06  -0.21771E+06   0.85898E+06

   TOTAL MASS = 0.33912    
     The mass principal axes coincide with the global Cartesian axes

   CENTER OF MASS (X,Y,Z)=    915.43        612.09        1048.9    

   TOTAL INERTIA ABOUT CENTER OF MASS
         28413.       0.26324E-05   0.31015E-05
        0.26324E-05   0.42038E+06  -0.28932E-05
        0.31015E-05  -0.28932E-05   0.44774E+06
     The inertia principal axes coincide with the global Cartesian axes


  *** MASS SUMMARY BY ELEMENT TYPE ***

  TYPE      MASS
     1  0.114217    
     2  0.945925E-01
     3  0.749675E-01
     4  0.553425E-01

 Range of element maximum matrix coefficients in global coordinates
 Maximum = 34501014.7 at element 9833.                                   
 Minimum = 1815160.65 at element 19137.                                  

   *** ELEMENT MATRIX FORMULATION TIMES
     TYPE    NUMBER   ENAME      TOTAL CP  AVE CP

        1      8046  SOLID187      0.328   0.000041
        2      6868  SOLID187      0.328   0.000048
        3      5522  SOLID187      0.219   0.000040
        4      4317  SOLID187      0.203   0.000047
        5       272  CONTA174      0.000   0.000000
        6       272  TARGE170      0.000   0.000000
        7       220  CONTA174      0.016   0.000071
        8       220  TARGE170      0.000   0.000000
        9       176  CONTA174      0.016   0.000089
       10       176  TARGE170      0.000   0.000000
       11        62  SURF154       0.000   0.000000
 Time at end of element matrix formulation CP = 1.9375.                  

 SPARSE MATRIX DIRECT SOLVER.
  Number of equations =      154806,    Maximum wavefront =    213
  Memory allocated for solver              =   550.564 MB
  Memory required for in-core solution     =   528.970 MB
  Memory required for out-of-core solution =   198.538 MB

 *** NOTE ***                            CP =       3.016   TIME= 18:25:18
 The Sparse Matrix Solver is currently running in the in-core memory     
 mode.  This memory mode uses the most amount of memory in order to      
 avoid using the hard drive as much as possible, which most often        
 results in the fastest solution time.  This mode is recommended if      
 enough physical memory is present to accommodate all of the solver      
 data.                                                                   
 curEqn=  77412  totEqn= 154806 Job CP sec=      3.906
      Factor Done=  55% Factor Wall sec=      0.602 rate=   19179.7 Mflops
 curEqn= 154806  totEqn= 154806 Job CP sec=      4.406
      Factor Done= 100% Factor Wall sec=      1.115 rate=   18758.6 Mflops
 Sparse solver maximum pivot= 75595095.1 at node 49273 UY.               
 Sparse solver minimum pivot= 825.621331 at node 17649 UZ.               
 Sparse solver minimum pivot in absolute value= 825.621331 at node 17649 
 UZ.                                                                     

   *** ELEMENT RESULT CALCULATION TIMES
     TYPE    NUMBER   ENAME      TOTAL CP  AVE CP

        1      8046  SOLID187      0.250   0.000031
        2      6868  SOLID187      0.219   0.000032
        3      5522  SOLID187      0.234   0.000042
        4      4317  SOLID187      0.156   0.000036
        5       272  CONTA174      0.016   0.000057
        7       220  CONTA174      0.000   0.000000
        9       176  CONTA174      0.016   0.000089
       11        62  SURF154       0.000   0.000000

   *** NODAL LOAD CALCULATION TIMES
     TYPE    NUMBER   ENAME      TOTAL CP  AVE CP

        1      8046  SOLID187      0.094   0.000012
        2      6868  SOLID187      0.062   0.000009
        3      5522  SOLID187      0.094   0.000017
        4      4317  SOLID187      0.047   0.000011
        5       272  CONTA174      0.000   0.000000
        7       220  CONTA174      0.000   0.000000
        9       176  CONTA174      0.000   0.000000
       11        62  SURF154       0.000   0.000000
 *** LOAD STEP     1   SUBSTEP     1  COMPLETED.    CUM ITER =      1
 *** TIME =   1.00000         TIME INC =   1.00000      NEW TRIANG MATRIX


 *** ANSYS BINARY FILE STATISTICS
  BUFFER SIZE USED= 16384
       13.125 MB WRITTEN ON ELEMENT SAVED DATA FILE: file.esav
       70.750 MB WRITTEN ON ASSEMBLED MATRIX FILE: file.full
       16.688 MB WRITTEN ON RESULTS FILE: file.rst
 *************** Write FE CONNECTORS *********

 WRITE OUT CONSTRAINT EQUATIONS TO FILE= file.ce                                                                                                                                                                                                                                                             
 ****************************************************
 *************** FINISHED SOLVE FOR LS 1 *************

 *GET  _WALLASOL  FROM  ACTI  ITEM=TIME WALL  VALUE=  18.4227778    

 PRINTOUT RESUMED BY /GOP

 FINISH SOLUTION PROCESSING


 ***** ROUTINE COMPLETED *****  CP =         6.078



 *** ANSYS - ENGINEERING ANALYSIS SYSTEM  RELEASE 2020 R1          20.1     ***
 ANSYS Academic Research                           
 00608699  VERSION=WINDOWS x64   18:25:22  OCT 06, 2020 CP=      6.094

 100kn--Static Structural (A5)                                                 



          ***** ANSYS RESULTS INTERPRETATION (POST1) *****

 *** NOTE ***                            CP =       6.094   TIME= 18:25:22
 Reading results into the database (SET command) will update the current 
 displacement and force boundary conditions in the database with the     
 values from the results file for that load set.  Note that any          
 subsequent solutions will use these values unless action is taken to    
 either SAVE the current values or not overwrite them (/EXIT,NOSAVE).    

 Set Encoding of XML File to:ISO-8859-1

 Set Output of XML File to:
     PARM,     ,     ,     ,     ,     ,     ,     ,     ,     ,     ,     ,
         ,     ,     ,     ,     ,     ,     ,

 DATABASE WRITTEN ON FILE  parm.xml                                                                                                                                                                                                                                                            

 EXIT THE ANSYS POST1 DATABASE PROCESSOR


 ***** ROUTINE COMPLETED *****  CP =         6.094



 PRINTOUT RESUMED BY /GOP

 *GET  _WALLDONE  FROM  ACTI  ITEM=TIME WALL  VALUE=  18.4227778    

 PARAMETER _PREPTIME =     1.000000000    

 PARAMETER _SOLVTIME =     6.000000000    

 PARAMETER _POSTTIME =     0.000000000    

 PARAMETER _TOTALTIM =     7.000000000    

 *GET  _DLBRATIO  FROM  ACTI  ITEM=SOLU DLBR  VALUE=  0.00000000    

 *GET  _COMBTIME  FROM  ACTI  ITEM=SOLU COMB  VALUE=  0.00000000    
 --- Number of total nodes = 52091
 --- Number of total elements = 26151
 --- Element load balance ratio = 0
 --- Time to combine distributed files = 0

 EXIT ANSYS WITHOUT SAVING DATABASE


 NUMBER OF WARNING MESSAGES ENCOUNTERED=          2
 NUMBER OF ERROR   MESSAGES ENCOUNTERED=          0

+--------------------- A N S Y S   S T A T I S T I C S ------------------------+

Release: 2020 R1            Build: 20.1       Update: UP20191203   Platform: WINDOWS x64 
Date Run: 10/06/2020   Time: 18:25     Process ID: 23748
Operating System: Windows 10  (Build: 19042)

Processor Model: Intel(R) Core(TM) i7-1065G7 CPU @ 1.30GHz

Compiler: Intel(R) FORTRAN Compiler Version 19.0.0  (Build: 20190206)
          Intel(R) C/C++ Compiler Version 19.0.0  (Build: 20190206)
          Intel(R) Math Kernel Library Version 2019.0.3 Product Build 20190125

Number of machines requested            :    1
Total number of cores available         :    8
Number of physical cores available      :    4
Number of processes requested           :    1
Number of threads per process requested :    1
Total number of cores requested         :    1 (Shared Memory Parallel)                    

GPU Acceleration: Not Requested

Job Name: file
Input File: dummy.dat
Working Directory: C:\Users\mende\Documents\repos\team_18\team challenge 2\100kN Mendel\_ProjectScratch\ScrC655

Total CPU time for main thread                    :        6.2 seconds
Total CPU time summed for all threads             :        6.1 seconds

Elapsed time spent obtaining a license            :        3.3 seconds
Elapsed time spent pre-processing model (/PREP7)  :        0.2 seconds
Elapsed time spent solution - preprocessing       :        0.3 seconds
Elapsed time spent computing solution             :        5.6 seconds
Elapsed time spent solution - postprocessing      :        0.0 seconds
Elapsed time spent post-processing model (/POST1) :        0.0 seconds
 
Equation solver used                              :            Sparse (symmetric)
Equation solver computational rate                :       18.5 Gflops
Equation solver effective I/O rate                :       10.9 GB/sec

Maximum total memory used                         :      708.0 MB
Maximum total memory allocated                    :     2112.0 MB
Total physical memory available                   :         16 GB

Total amount of I/O written to disk               :        0.1 GB
Total amount of I/O read from disk                :        0.0 GB

+------------------ E N D   A N S Y S   S T A T I S T I C S -------------------+


 *---------------------------------------------------------------------------*
 |                                                                           |
 |                            ANSYS RUN COMPLETED                            |
 |                                                                           |
 |---------------------------------------------------------------------------|
 |                                                                           |
 | Ansys 2020 R1               Build 20.1         UP20191203     WINDOWS x64 |
 |                                                                           |
 |---------------------------------------------------------------------------|
 |                                                                           |
 | Database Requested(-db)  1024 MB    Scratch Memory Requested      1024 MB |
 | Maximum Database Used      32 MB    Maximum Scratch Memory Used    676 MB |
 |                                                                           |
 |---------------------------------------------------------------------------|
 |                                                                           |
 |        CP Time      (sec) =          6.094       Time  =  18:25:22        |
 |        Elapsed Time (sec) =         11.000       Date  =  10/06/2020      |
 |                                                                           |
 *---------------------------------------------------------------------------*
