
 ANSYS Academic Research                           


 *------------------------------------------------------------------*
 |                                                                  |
 |   W E L C O M E   T O   T H E   A N S Y S (R)  P R O G R A M     |
 |                                                                  |
 *------------------------------------------------------------------*




 ***************************************************************
 *            ANSYS 2020 R1          LEGAL NOTICES             *
 ***************************************************************
 *                                                             *
 * Copyright 1971-2020 ANSYS, Inc.  All rights reserved.       *
 * Unauthorized use, distribution or duplication is            *
 * prohibited.                                                 *
 *                                                             *
 * Ansys is a registered trademark of ANSYS, Inc. or its       *
 * subsidiaries in the United States or other countries.       *
 * See the ANSYS, Inc. online documentation or the ANSYS, Inc. *
 * documentation CD or online help for the complete Legal      *
 * Notice.                                                     *
 *                                                             *
 ***************************************************************
 *                                                             *
 * THIS ANSYS SOFTWARE PRODUCT AND PROGRAM DOCUMENTATION       *
 * INCLUDE TRADE SECRETS AND CONFIDENTIAL AND PROPRIETARY      *
 * PRODUCTS OF ANSYS, INC., ITS SUBSIDIARIES, OR LICENSORS.    *
 * The software products and documentation are furnished by    *
 * ANSYS, Inc. or its subsidiaries under a software license    *
 * agreement that contains provisions concerning               *
 * non-disclosure, copying, length and nature of use,          *
 * compliance with exporting laws, warranties, disclaimers,    *
 * limitations of liability, and remedies, and other           *
 * provisions.  The software products and documentation may be *
 * used, disclosed, transferred, or copied only in accordance  *
 * with the terms and conditions of that software license      *
 * agreement.                                                  *
 *                                                             *
 * ANSYS, Inc. is a UL registered                              *
 * ISO 9001:2015 company.                                      *
 *                                                             *
 ***************************************************************
 *                                                             *
 * This product is subject to U.S. laws governing export and   *
 * re-export.                                                  *
 *                                                             *
 * For U.S. Government users, except as specifically granted   *
 * by the ANSYS, Inc. software license agreement, the use,     *
 * duplication, or disclosure by the United States Government  *
 * is subject to restrictions stated in the ANSYS, Inc.        *
 * software license agreement and FAR 12.212 (for non-DOD      *
 * licenses).                                                  *
 *                                                             *
 ***************************************************************

 2020 R1 
     
 Point Releases and Patches installed:   
     
 ANSYS, Inc. Products 2020 R1
 SpaceClaim 2020 R1  
 AIM 2020 R1 
 Live (includes SpaceClaim) 2020 R1  
 Autodyn 2020 R1 
 LS-DYNA 2020 R1 
 CFD-Post only 2020 R1   
 CFX (includes CFD-Post) 2020 R1 
 Chemkin 2020 R1 
 EnSight 2020 R1 
 FENSAP-ICE 2020 R1  
 Fluent (includes CFD-Post) 2020 R1  
 Forte 2020 R1   
 Polyflow (includes CFD-Post) 2020 R1
 TurboGrid 2020 R1   
 ICEM CFD 2020 R1
 Aqwa 2020 R1
 Customization Files for User Programmable Features 2020 R1  
 Mechanical Products 2020 R1 
 Additive 2020 R1
 ANSYS Sherlock 2020 R1  
 Icepak (includes CFD-Post) 2020 R1  
 Remote Solve Manager Standalone Services 2020 R1
 Viewer 2020 R1  
 ACIS Geometry Interface 2020 R1 
 AutoCAD Geometry Interface 2020 R1  
 Catia, Version 4 Geometry Interface 2020 R1 
 Catia, Version 5 Geometry Interface 2020 R1 
 Catia, Version 6 Geometry Interface 2020 R1 
 Creo Elements/Direct Modeling Geometry Interface 2020 R1
 Creo Parametric Geometry Interface 2020 R1  
 Inventor Geometry Interface 2020 R1 
 JTOpen Geometry Interface 2020 R1   
 NX Geometry Interface 2020 R1   
 Parasolid Geometry Interface  2020 R1   
 Solid Edge Geometry Interface 2020 R1   
 SOLIDWORKS Geometry Interface 2020 R1   
 ANSYS, Inc. License Manager 2020 R1 


          *****  ANSYS COMMAND LINE ARGUMENTS  *****
  BATCH MODE REQUESTED (-b)    = NOLIST
  INPUT FILE COPY MODE (-c)    = COPY
  SHARED MEMORY PARALLEL REQUESTED
    SINGLE PROCESS WITH SINGLE THREAD REQUESTED
    TOTAL OF     1 CORES REQUESTED
  DESIGNXPLORER REQUESTED
  INPUT FILE NAME              = C:\Users\mende\AppData\Local\Temp\WB_PC_mende_8844_2\_ProjectScratch\Scr3A53\dummy.dat
  OUTPUT FILE NAME             = C:\Users\mende\AppData\Local\Temp\WB_PC_mende_8844_2\_ProjectScratch\Scr3A53\solve.out
  START-UP FILE MODE           = NOREAD
  STOP FILE MODE               = NOREAD

 RELEASE= 2020 R1              BUILD= 20.1      UP20191203   VERSION=WINDOWS x64 
 CURRENT JOBNAME=file  02:04:50  SEP 30, 2020 CP=      0.188


 PARAMETER _DS_PROGRESS =     999.0000000    

 /INPUT FILE= ds.dat  LINE=       0



 DO NOT WRITE ELEMENT RESULTS INTO DATABASE

 *GET  _WALLSTRT  FROM  ACTI  ITEM=TIME WALL  VALUE=  2.08055556    

 TITLE= 
 unsaved_project--Static Structural (A5)                                       


 SET PARAMETER DIMENSIONS ON  _WB_PROJECTSCRATCH_DIR
  TYPE=STRI  DIMENSIONS=      248        1        1

 PARAMETER _WB_PROJECTSCRATCH_DIR(1) = C:\Users\mende\AppData\Local\Temp\WB_PC_mende_8844_2\_ProjectScratch\Scr3A53\

 SET PARAMETER DIMENSIONS ON  _WB_SOLVERFILES_DIR
  TYPE=STRI  DIMENSIONS=      248        1        1

 PARAMETER _WB_SOLVERFILES_DIR(1) = C:\Users\mende\AppData\Local\Temp\WB_PC_mende_8844_2\unsaved_project_files\dp0\SYS\MECH\

 SET PARAMETER DIMENSIONS ON  _WB_USERFILES_DIR
  TYPE=STRI  DIMENSIONS=      248        1        1

 PARAMETER _WB_USERFILES_DIR(1) = C:\Users\mende\AppData\Local\Temp\WB_PC_mende_8844_2\unsaved_project_files\user_files\
 --- Data in consistent NMM units. See Solving Units in the help system for more

 MPA UNITS SPECIFIED FOR INTERNAL    
  LENGTH      = MILLIMETERS (mm)
  MASS        = TONNE (Mg)
  TIME        = SECONDS (sec)
  TEMPERATURE = CELSIUS (C)
  TOFFSET     = 273.0
  FORCE       = NEWTON (N)
  HEAT        = MILLIJOULES (mJ)

 INPUT  UNITS ARE ALSO SET TO MPA 

 *** ANSYS - ENGINEERING ANALYSIS SYSTEM  RELEASE 2020 R1          20.1     ***
 ANSYS Academic Research                           
 00608699  VERSION=WINDOWS x64   02:04:50  SEP 30, 2020 CP=      0.234

 unsaved_project--Static Structural (A5)                                       



          ***** ANSYS ANALYSIS DEFINITION (PREP7) *****
 *********** Nodes for the whole assembly ***********
 *********** Elements for Body 1 "4-2" ***********
 *********** Elements for Body 2 "3-2" ***********
 *********** Elements for Body 3 "1-1" ***********
 *********** Elements for Body 4 "2-2" ***********
 *********** Send User Defined Coordinate System(s) ***********
 *********** Set Reference Temperature ***********
 *********** Send Materials ***********
 *********** Create Contact "Contact Region" ***********
             Real Constant Set For Above Contact Is 6 & 5
 *********** Create Contact "Contact Region 2" ***********
             Real Constant Set For Above Contact Is 8 & 7
 *********** Create Contact "Contact Region 3" ***********
             Real Constant Set For Above Contact Is 10 & 9
 *********** Fixed Supports ***********
 *********** Define Force Using Surface Effect Elements ***********


 ***** ROUTINE COMPLETED *****  CP =         0.281


 --- Number of total nodes = 7602
 --- Number of contact elements = 306
 --- Number of spring elements = 0
 --- Number of bearing elements = 0
 --- Number of solid elements = 1045
 --- Number of condensed parts = 0
 --- Number of total elements = 1351

 *GET  _WALLBSOL  FROM  ACTI  ITEM=TIME WALL  VALUE=  2.08055556    
 ****************************************************************************
 *************************    SOLUTION       ********************************
 ****************************************************************************

 *****  ANSYS SOLUTION ROUTINE  *****


 PERFORM A STATIC ANALYSIS
  THIS WILL BE A NEW ANALYSIS

 PARAMETER _THICKRATIO =    0.5000000000    

 USE SPARSE MATRIX DIRECT SOLVER

 CONTACT INFORMATION PRINTOUT LEVEL       1

 NLDIAG: Nonlinear diagnostics CONT option is set to ON. 
         Writing frequency : each ITERATION.

 DO NOT SAVE ANY RESTART FILES AT ALL
 ****************************************************
 ******************* SOLVE FOR LS 1 OF 1 ****************

 SELECT       FOR ITEM=TYPE COMPONENT=    
  IN RANGE        11 TO         11 STEP          1

         16  ELEMENTS (OF       1351  DEFINED) SELECTED BY  ESEL  COMMAND.

 SELECT      ALL NODES HAVING ANY ELEMENT IN ELEMENT SET.

         79 NODES (OF       7602  DEFINED) SELECTED FROM
       16 SELECTED ELEMENTS BY NSLE COMMAND.

 SPECIFIED SURFACE LOAD PRES FOR ALL SELECTED ELEMENTS  LKEY =  1   KVAL = 1
     VALUES =     0.0000         0.0000         0.0000         0.0000    

 SPECIFIED SURFACE LOAD PRES FOR ALL SELECTED ELEMENTS  LKEY =  2   KVAL = 1
     VALUES =    -26.316        -26.316        -26.316        -26.316    

 SPECIFIED SURFACE LOAD PRES FOR ALL SELECTED ELEMENTS  LKEY =  3   KVAL = 1
     VALUES =     0.0000         0.0000         0.0000         0.0000    

 ALL SELECT   FOR ITEM=NODE COMPONENT=    
  IN RANGE         1 TO       7602 STEP          1

       7602  NODES (OF       7602  DEFINED) SELECTED BY NSEL  COMMAND.

 ALL SELECT   FOR ITEM=ELEM COMPONENT=    
  IN RANGE         1 TO       3587 STEP          1

       1351  ELEMENTS (OF       1351  DEFINED) SELECTED BY  ESEL  COMMAND.

 PRINTOUT RESUMED BY /GOP

 USE       1 SUBSTEPS INITIALLY THIS LOAD STEP FOR ALL  DEGREES OF FREEDOM
 FOR AUTOMATIC TIME STEPPING:
   USE      1 SUBSTEPS AS A MAXIMUM
   USE      1 SUBSTEPS AS A MINIMUM

 TIME=  1.0000    

 ERASE THE CURRENT DATABASE OUTPUT CONTROL TABLE.


 WRITE ALL  ITEMS TO THE DATABASE WITH A FREQUENCY OF NONE
   FOR ALL APPLICABLE ENTITIES

 WRITE NSOL ITEMS TO THE DATABASE WITH A FREQUENCY OF ALL 
   FOR ALL APPLICABLE ENTITIES

 WRITE RSOL ITEMS TO THE DATABASE WITH A FREQUENCY OF ALL 
   FOR ALL APPLICABLE ENTITIES

 WRITE EANG ITEMS TO THE DATABASE WITH A FREQUENCY OF ALL 
   FOR ALL APPLICABLE ENTITIES

 WRITE ETMP ITEMS TO THE DATABASE WITH A FREQUENCY OF ALL 
   FOR ALL APPLICABLE ENTITIES

 WRITE VENG ITEMS TO THE DATABASE WITH A FREQUENCY OF ALL 
   FOR ALL APPLICABLE ENTITIES

 WRITE STRS ITEMS TO THE DATABASE WITH A FREQUENCY OF ALL 
   FOR ALL APPLICABLE ENTITIES

 WRITE EPEL ITEMS TO THE DATABASE WITH A FREQUENCY OF ALL 
   FOR ALL APPLICABLE ENTITIES

 WRITE EPPL ITEMS TO THE DATABASE WITH A FREQUENCY OF ALL 
   FOR ALL APPLICABLE ENTITIES

 WRITE CONT ITEMS TO THE DATABASE WITH A FREQUENCY OF ALL 
   FOR ALL APPLICABLE ENTITIES

 *GET  ANSINTER_  FROM  ACTI  ITEM=INT        VALUE=  0.00000000    

 *IF  ANSINTER_                         ( =   0.00000     )  NE  
      0                                 ( =   0.00000     )  THEN    

 *ENDIF

 *****  ANSYS SOLVE    COMMAND  *****

 *** WARNING ***                         CP =       0.281   TIME= 02:04:50
 Element shape checking is currently inactive.  Issue SHPP,ON or         
 SHPP,WARN to reactivate, if desired.                                    

 *** NOTE ***                            CP =       0.281   TIME= 02:04:50
 The model data was checked and warning messages were found.             
  Please review output or errors file (                                  
 C:\Users\mende\AppData\Local\Temp\WB_PC_mende_8844_2\_ProjectScratch\Sc 
 cr3A53\file.err ) for these warning messages.                           

 *** SELECTION OF ELEMENT TECHNOLOGIES FOR APPLICABLE ELEMENTS ***
      --- GIVE SUGGESTIONS AND RESET THE KEY OPTIONS ---

 ELEMENT TYPE    1 IS SOLID186. KEYOPT(2)=0 IS SUGGESTED AND HAS BEEN RESET.
  KEYOPT(1-12)=    0    0    0    0    0    0    0    0    0    0    0    0

 ELEMENT TYPE    2 IS SOLID186. KEYOPT(2)=0 IS SUGGESTED AND HAS BEEN RESET.
  KEYOPT(1-12)=    0    0    0    0    0    0    0    0    0    0    0    0

 ELEMENT TYPE    3 IS SOLID186. KEYOPT(2)=0 IS SUGGESTED AND HAS BEEN RESET.
  KEYOPT(1-12)=    0    0    0    0    0    0    0    0    0    0    0    0

 ELEMENT TYPE    4 IS SOLID186. KEYOPT(2)=0 IS SUGGESTED AND HAS BEEN RESET.
  KEYOPT(1-12)=    0    0    0    0    0    0    0    0    0    0    0    0



 *** ANSYS - ENGINEERING ANALYSIS SYSTEM  RELEASE 2020 R1          20.1     ***
 ANSYS Academic Research                           
 00608699  VERSION=WINDOWS x64   02:04:50  SEP 30, 2020 CP=      0.281

 unsaved_project--Static Structural (A5)                                       



                       S O L U T I O N   O P T I O N S

   PROBLEM DIMENSIONALITY. . . . . . . . . . . . .3-D                  
   DEGREES OF FREEDOM. . . . . . UX   UY   UZ  
   ANALYSIS TYPE . . . . . . . . . . . . . . . . .STATIC (STEADY-STATE)
   OFFSET TEMPERATURE FROM ABSOLUTE ZERO . . . . .  273.15    
   EQUATION SOLVER OPTION. . . . . . . . . . . . .SPARSE             
   GLOBALLY ASSEMBLED MATRIX . . . . . . . . . . .SYMMETRIC  

 *** WARNING ***                         CP =       0.281   TIME= 02:04:50
 Material number 11 (used by element 3572) should normally have at least 
 one MP or one TB type command associated with it.  Output of energy by  
 material may not be available.                                          

 *** NOTE ***                            CP =       0.281   TIME= 02:04:50
 The step data was checked and warning messages were found.              
  Please review output or errors file (                                  
 C:\Users\mende\AppData\Local\Temp\WB_PC_mende_8844_2\_ProjectScratch\Sc 
 cr3A53\file.err ) for these warning messages.                           

 *** NOTE ***                            CP =       0.281   TIME= 02:04:50
 The conditions for direct assembly have been met.  No .emat or .erot    
 files will be produced.                                                 

                      L O A D   S T E P   O P T I O N S

   LOAD STEP NUMBER. . . . . . . . . . . . . . . .     1
   TIME AT END OF THE LOAD STEP. . . . . . . . . .  1.0000    
   NUMBER OF SUBSTEPS. . . . . . . . . . . . . . .     1
   STEP CHANGE BOUNDARY CONDITIONS . . . . . . . .    NO
   PRINT OUTPUT CONTROLS . . . . . . . . . . . . .NO PRINTOUT
   DATABASE OUTPUT CONTROLS
      ITEM     FREQUENCY   COMPONENT
       ALL       NONE               
      NSOL        ALL               
      RSOL        ALL               
      EANG        ALL               
      ETMP        ALL               
      VENG        ALL               
      STRS        ALL               
      EPEL        ALL               
      EPPL        ALL               
      CONT        ALL               


 SOLUTION MONITORING INFO IS WRITTEN TO FILE= file.mntr                                                                                                                                                                                                                                                           

 *** NOTE ***                            CP =       0.312   TIME= 02:04:50
 Symmetric Deformable- deformable contact pair identified by real        
 constant set 5 and contact element type 5 has been set up.  The         
 companion pair has real constant set ID 6.  Both pairs should have the  
 same behavior.                                                          
 ANSYS will keep the current pair and deactivate its companion pair,     
 resulting in asymmetric contact.                                        
 Linear contact is defined
 Contact algorithm: Augmented Lagrange method
 Contact detection at: Gauss integration point
 Contact stiffness factor FKN                  10.000    
 The resulting initial contact stiffness      0.43440E+06
 Default penetration tolerance factor FTOLN   0.10000    
 The resulting penetration tolerance           8.9774    
 Default opening contact stiffness OPSF will be used.
 Default tangent stiffness factor FKT          1.0000    
 Use constant contact stiffness
 Default Max. friction stress TAUMAX          0.10000E+21
 Average contact surface length                22.150    
 Average contact pair depth                    89.774    
 Default pinball region factor PINB           0.25000    
 The resulting pinball region                  22.444    
 Initial penetration/gap is excluded.
 Bonded contact (always) is defined.

 *** NOTE ***                            CP =       0.312   TIME= 02:04:50
 Max.  Initial penetration 4.547473509E-13 was detected between contact  
 element 3300 and target element 3355.                                   
 ****************************************
  

 *** NOTE ***                            CP =       0.312   TIME= 02:04:50
 Symmetric Deformable- deformable contact pair identified by real        
 constant set 6 and contact element type 5 has been set up.  The         
 companion pair has real constant set ID 5.  Both pairs should have the  
 same behavior.                                                          
 ANSYS will deactivate the current pair and keep its companion pair,     
 resulting in asymmetric contact.                                        
 Linear contact is defined
 Contact algorithm: Augmented Lagrange method
 Contact detection at: Gauss integration point
 Contact stiffness factor FKN                  10.000    
 The resulting initial contact stiffness      0.43440E+06
 Default penetration tolerance factor FTOLN   0.10000    
 The resulting penetration tolerance           9.2081    
 Default opening contact stiffness OPSF will be used.
 Default tangent stiffness factor FKT          1.0000    
 Use constant contact stiffness
 Default Max. friction stress TAUMAX          0.10000E+21
 Average contact surface length                23.697    
 Average contact pair depth                    92.081    
 Default pinball region factor PINB           0.25000    
 The resulting pinball region                  23.020    
 Initial penetration/gap is excluded.
 Bonded contact (always) is defined.

 *** NOTE ***                            CP =       0.312   TIME= 02:04:50
 Max.  Initial penetration 9.094947018E-13 was detected between contact  
 element 3314 and target element 3291.                                   
 ****************************************
  

 *** NOTE ***                            CP =       0.312   TIME= 02:04:50
 Symmetric Deformable- deformable contact pair identified by real        
 constant set 7 and contact element type 7 has been set up.  The         
 companion pair has real constant set ID 8.  Both pairs should have the  
 same behavior.                                                          
 ANSYS will keep the current pair and deactivate its companion pair,     
 resulting in asymmetric contact.                                        
 Linear contact is defined
 Contact algorithm: Augmented Lagrange method
 Contact detection at: Gauss integration point
 Contact stiffness factor FKN                  10.000    
 The resulting initial contact stiffness      0.43557E+06
 Default penetration tolerance factor FTOLN   0.10000    
 The resulting penetration tolerance           9.0038    
 Default opening contact stiffness OPSF will be used.
 Default tangent stiffness factor FKT          1.0000    
 Use constant contact stiffness
 Default Max. friction stress TAUMAX          0.10000E+21
 Average contact surface length                24.950    
 Average contact pair depth                    90.038    
 Default pinball region factor PINB           0.25000    
 The resulting pinball region                  22.510    
 Initial penetration/gap is excluded.
 Bonded contact (always) is defined.

 *** NOTE ***                            CP =       0.312   TIME= 02:04:50
 Max.  Initial penetration 4.547473509E-13 was detected between contact  
 element 3392 and target element 3457.                                   
 ****************************************
  

 *** NOTE ***                            CP =       0.312   TIME= 02:04:50
 Symmetric Deformable- deformable contact pair identified by real        
 constant set 8 and contact element type 7 has been set up.  The         
 companion pair has real constant set ID 7.  Both pairs should have the  
 same behavior.                                                          
 ANSYS will deactivate the current pair and keep its companion pair,     
 resulting in asymmetric contact.                                        
 Linear contact is defined
 Contact algorithm: Augmented Lagrange method
 Contact detection at: Gauss integration point
 Contact stiffness factor FKN                  10.000    
 The resulting initial contact stiffness      0.43557E+06
 Default penetration tolerance factor FTOLN   0.10000    
 The resulting penetration tolerance           9.1834    
 Default opening contact stiffness OPSF will be used.
 Default tangent stiffness factor FKT          1.0000    
 Use constant contact stiffness
 Default Max. friction stress TAUMAX          0.10000E+21
 Average contact surface length                26.432    
 Average contact pair depth                    91.834    
 Default pinball region factor PINB           0.25000    
 The resulting pinball region                  22.958    
 Initial penetration/gap is excluded.
 Bonded contact (always) is defined.

 *** NOTE ***                            CP =       0.312   TIME= 02:04:50
 Max.  Initial penetration 4.547473509E-13 was detected between contact  
 element 3410 and target element 3370.                                   
 ****************************************
  

 *** NOTE ***                            CP =       0.312   TIME= 02:04:50
 Symmetric Deformable- deformable contact pair identified by real        
 constant set 9 and contact element type 9 has been set up.  The         
 companion pair has real constant set ID 10.  Both pairs should have     
 the same behavior.                                                      
 ANSYS will deactivate the current pair and keep its companion pair,     
 resulting in asymmetric contact.                                        
 Linear contact is defined
 Contact algorithm: Augmented Lagrange method
 Contact detection at: Gauss integration point
 Contact stiffness factor FKN                  10.000    
 The resulting initial contact stiffness      0.43635E+06
 Default penetration tolerance factor FTOLN   0.10000    
 The resulting penetration tolerance           9.1669    
 Default opening contact stiffness OPSF will be used.
 Default tangent stiffness factor FKT          1.0000    
 Use constant contact stiffness
 Default Max. friction stress TAUMAX          0.10000E+21
 Average contact surface length                29.632    
 Average contact pair depth                    91.669    
 Default pinball region factor PINB           0.25000    
 The resulting pinball region                  22.917    
 Initial penetration/gap is excluded.
 Bonded contact (always) is defined.

 *** NOTE ***                            CP =       0.312   TIME= 02:04:50
 Max.  Initial penetration 5.684341886E-14 was detected between contact  
 element 3505 and target element 3555.                                   
 ****************************************
  

 *** NOTE ***                            CP =       0.312   TIME= 02:04:50
 Symmetric Deformable- deformable contact pair identified by real        
 constant set 10 and contact element type 9 has been set up.  The        
 companion pair has real constant set ID 9.  Both pairs should have the  
 same behavior.                                                          
 ANSYS will keep the current pair and deactivate its companion pair,     
 resulting in asymmetric contact.                                        
 Linear contact is defined
 Contact algorithm: Augmented Lagrange method
 Contact detection at: Gauss integration point
 Contact stiffness factor FKN                  10.000    
 The resulting initial contact stiffness      0.43635E+06
 Default penetration tolerance factor FTOLN   0.10000    
 The resulting penetration tolerance           9.0175    
 Default opening contact stiffness OPSF will be used.
 Default tangent stiffness factor FKT          1.0000    
 Use constant contact stiffness
 Default Max. friction stress TAUMAX          0.10000E+21
 Average contact surface length                22.111    
 Average contact pair depth                    90.175    
 Default pinball region factor PINB           0.25000    
 The resulting pinball region                  22.544    
 Initial penetration/gap is excluded.
 Bonded contact (always) is defined.

 *** NOTE ***                            CP =       0.312   TIME= 02:04:50
 Max.  Initial penetration 5.684341886E-14 was detected between contact  
 element 3528 and target element 3475.                                   
 ****************************************
  
  
  

  
 *************************************************
  SUMMARY FOR CONTACT PAIR IDENTIFIED BY REAL CONSTANT SET           5
 Max.  Penetration of -1.434051723E-26 has been detected between contact 
 element 3301 and target element 3356.                                   
  
 Max.  Geometrical gap of 4.547473509E-13 has been detected between      
 contact element 3302 and target element 3353.                           
  
 Max.  Geometrical penetration of -4.547473509E-13 has been detected     
 between contact element 3302 and target element 3353.                   
 For total 16 contact elements, there are 16 elements are in contact.    
 There are 16 elements are in sticking.                                  
 Contacting area 5800.00001.                                             
 Max.  Pinball distance 22.4435731.                                      
 One of the contact searching regions contains at least 10 target        
 elements.                                                               
 Max.  Pressure/force -1.975424027E-07.                                  
 Max.  Normal stiffness 434400.337.                                      
 Min.  Normal stiffness 434400.337.                                      
 Max.  Tangential stiffness 1320481.29.                                  
 Min.  Tangential stiffness 1320481.29.                                  
 *************************************************
  
 *************************************************
  SUMMARY FOR CONTACT PAIR IDENTIFIED BY REAL CONSTANT SET           6

 *** NOTE ***                            CP =       0.438   TIME= 02:04:50
 Contact pair is inactive.                                               
  
 *************************************************
  SUMMARY FOR CONTACT PAIR IDENTIFIED BY REAL CONSTANT SET           7
 Max.  Penetration of -2.273736754E-13 has been detected between contact 
 element 3389 and target element 3437.                                   
  
 Max.  Geometrical gap of 4.547473509E-13 has been detected between      
 contact element 3391 and target element 3450.                           
  
 Max.  Geometrical penetration of -4.547473509E-13 has been detected     
 between contact element 3391 and target element 3450.                   
 For total 24 contact elements, there are 24 elements are in contact.    
 There are 24 elements are in sticking.                                  
 Contacting area 7800.00001.                                             
 Max.  Pinball distance 22.5095357.                                      
 One of the contact searching regions contains at least 9 target         
 elements.                                                               
 Max.  Pressure/force 9.903691322E-08.                                   
 Max.  Normal stiffness 435568.951.                                      
 Min.  Normal stiffness 435568.951.                                      
 Max.  Tangential stiffness 1178903.13.                                  
 Min.  Tangential stiffness 1178903.13.                                  
 *************************************************
  
 *************************************************
  SUMMARY FOR CONTACT PAIR IDENTIFIED BY REAL CONSTANT SET           8

 *** NOTE ***                            CP =       0.438   TIME= 02:04:50
 Contact pair is inactive.                                               
  
 *************************************************
  SUMMARY FOR CONTACT PAIR IDENTIFIED BY REAL CONSTANT SET           9

 *** NOTE ***                            CP =       0.438   TIME= 02:04:50
 Contact pair is inactive.                                               
  
 *************************************************
  SUMMARY FOR CONTACT PAIR IDENTIFIED BY REAL CONSTANT SET          10
 Max.  Penetration of -1.185384155E-27 has been detected between contact 
 element 3520 and target element 3462.                                   
  
 Max.  Geometrical gap of 8.526512829E-14 has been detected between      
 contact element 3539 and target element 3484.                           
  
 Max.  Geometrical penetration of -5.684341886E-14 has been detected     
 between contact element 3539 and target element 3484.                   
 For total 26 contact elements, there are 26 elements are in contact.    
 There are 26 elements are in sticking.                                  
 Contacting area 9800.00001.                                             
 Max.  Pinball distance 22.5436328.                                      
 One of the contact searching regions contains at least 10 target        
 elements.                                                               
 Max.  Pressure/force 8.569465172E-09.                                   
 Max.  Normal stiffness 436350.433.                                      
 Min.  Normal stiffness 436350.433.                                      
 Max.  Tangential stiffness 1334634.9.                                   
 Min.  Tangential stiffness 1334634.9.                                   
 *************************************************


                         ***********  PRECISE MASS SUMMARY  ***********

   TOTAL RIGID BODY MASS MATRIX ABOUT ORIGIN
               Translational mass               |   Coupled translational/rotational mass
        0.24492        0.0000        0.0000     |     0.0000        256.89       -149.91    
         0.0000       0.24492        0.0000     |    -256.89        0.0000        216.07    
         0.0000        0.0000       0.24492     |     149.91       -216.07        0.0000    
     ------------------------------------------ | ------------------------------------------
                                                |         Rotational mass (inertia)
                                                |    0.37255E+06  -0.13225E+06  -0.22662E+06
                                                |   -0.13225E+06   0.75818E+06  -0.15724E+06
                                                |   -0.22662E+06  -0.15724E+06   0.59146E+06

   TOTAL MASS = 0.24492    
     The mass principal axes coincide with the global Cartesian axes

   CENTER OF MASS (X,Y,Z)=    882.19        612.09        1048.9    

   TOTAL INERTIA ABOUT CENTER OF MASS
         11353.       0.23828E-04   0.50308E-05
        0.23828E-04   0.29813E+06  -0.64679E-10
        0.50308E-05  -0.64679E-10   0.30909E+06
     The inertia principal axes coincide with the global Cartesian axes


  *** MASS SUMMARY BY ELEMENT TYPE ***

  TYPE      MASS
     1  0.376800E-01
     2  0.533800E-01
     3  0.847800E-01
     4  0.690800E-01

 Range of element maximum matrix coefficients in global coordinates
 Maximum = 162195214 at element 3525.                                    
 Minimum = 9062335.75 at element 3520.                                   

   *** ELEMENT MATRIX FORMULATION TIMES
     TYPE    NUMBER   ENAME      TOTAL CP  AVE CP

        1       176  SOLID186      0.016   0.000089
        2       264  SOLID186      0.031   0.000118
        3       319  SOLID186      0.031   0.000098
        4       286  SOLID186      0.016   0.000055
        5        40  CONTA174      0.000   0.000000
        6        40  TARGE170      0.016   0.000391
        7        50  CONTA174      0.000   0.000000
        8        50  TARGE170      0.000   0.000000
        9        55  CONTA174      0.000   0.000000
       10        55  TARGE170      0.000   0.000000
       11        16  SURF154       0.000   0.000000
 Time at end of element matrix formulation CP = 0.4375.                  

 SPARSE MATRIX DIRECT SOLVER.
  Number of equations =       22374,    Maximum wavefront =    162
  Memory allocated for solver              =    95.796 MB
  Memory required for in-core solution     =    92.258 MB
  Memory required for out-of-core solution =    45.200 MB

 *** NOTE ***                            CP =       0.609   TIME= 02:04:50
 The Sparse Matrix Solver is currently running in the in-core memory     
 mode.  This memory mode uses the most amount of memory in order to      
 avoid using the hard drive as much as possible, which most often        
 results in the fastest solution time.  This mode is recommended if      
 enough physical memory is present to accommodate all of the solver      
 data.                                                                   
 curEqn=  22374  totEqn=  22374 Job CP sec=      0.797
      Factor Done= 100% Factor Wall sec=      0.111 rate=   18523.1 Mflops
 Sparse solver maximum pivot= 247235598 at node 6525 UZ.                 
 Sparse solver minimum pivot= 432.796953 at node 751 UZ.                 
 Sparse solver minimum pivot in absolute value= 432.796953 at node 751   
 UZ.                                                                     

   *** ELEMENT RESULT CALCULATION TIMES
     TYPE    NUMBER   ENAME      TOTAL CP  AVE CP

        1       176  SOLID186      0.016   0.000089
        2       264  SOLID186      0.031   0.000118
        3       319  SOLID186      0.000   0.000000
        4       286  SOLID186      0.016   0.000055
        5        40  CONTA174      0.000   0.000000
        7        50  CONTA174      0.000   0.000000
        9        55  CONTA174      0.000   0.000000
       11        16  SURF154       0.000   0.000000

   *** NODAL LOAD CALCULATION TIMES
     TYPE    NUMBER   ENAME      TOTAL CP  AVE CP

        1       176  SOLID186      0.000   0.000000
        2       264  SOLID186      0.000   0.000000
        3       319  SOLID186      0.016   0.000049
        4       286  SOLID186      0.000   0.000000
        5        40  CONTA174      0.000   0.000000
        7        50  CONTA174      0.000   0.000000
        9        55  CONTA174      0.000   0.000000
       11        16  SURF154       0.000   0.000000
 *** LOAD STEP     1   SUBSTEP     1  COMPLETED.    CUM ITER =      1
 *** TIME =   1.00000         TIME INC =   1.00000      NEW TRIANG MATRIX


 *** ANSYS BINARY FILE STATISTICS
  BUFFER SIZE USED= 16384
        2.250 MB WRITTEN ON ELEMENT SAVED DATA FILE: file.esav
       15.812 MB WRITTEN ON ASSEMBLED MATRIX FILE: file.full
        1.750 MB WRITTEN ON RESULTS FILE: file.rst
 *************** Write FE CONNECTORS *********

 WRITE OUT CONSTRAINT EQUATIONS TO FILE= file.ce                                                                                                                                                                                                                                                             
 ****************************************************
 *************** FINISHED SOLVE FOR LS 1 *************

 *GET  _WALLASOL  FROM  ACTI  ITEM=TIME WALL  VALUE=  2.08083333    

 PRINTOUT RESUMED BY /GOP

 FINISH SOLUTION PROCESSING


 ***** ROUTINE COMPLETED *****  CP =         0.938



 *** ANSYS - ENGINEERING ANALYSIS SYSTEM  RELEASE 2020 R1          20.1     ***
 ANSYS Academic Research                           
 00608699  VERSION=WINDOWS x64   02:04:51  SEP 30, 2020 CP=      0.938

 unsaved_project--Static Structural (A5)                                       



          ***** ANSYS RESULTS INTERPRETATION (POST1) *****

 *** NOTE ***                            CP =       0.938   TIME= 02:04:51
 Reading results into the database (SET command) will update the current 
 displacement and force boundary conditions in the database with the     
 values from the results file for that load set.  Note that any          
 subsequent solutions will use these values unless action is taken to    
 either SAVE the current values or not overwrite them (/EXIT,NOSAVE).    

 Set Encoding of XML File to:ISO-8859-1

 Set Output of XML File to:
     PARM,     ,     ,     ,     ,     ,     ,     ,     ,     ,     ,     ,
         ,     ,     ,     ,     ,     ,     ,

 DATABASE WRITTEN ON FILE  parm.xml                                                                                                                                                                                                                                                            

 EXIT THE ANSYS POST1 DATABASE PROCESSOR


 ***** ROUTINE COMPLETED *****  CP =         0.938



 PRINTOUT RESUMED BY /GOP

 *GET  _WALLDONE  FROM  ACTI  ITEM=TIME WALL  VALUE=  2.08083333    

 PARAMETER _PREPTIME =     0.000000000    

 PARAMETER _SOLVTIME =     1.000000000    

 PARAMETER _POSTTIME =     0.000000000    

 PARAMETER _TOTALTIM =     1.000000000    

 *GET  _DLBRATIO  FROM  ACTI  ITEM=SOLU DLBR  VALUE=  0.00000000    

 *GET  _COMBTIME  FROM  ACTI  ITEM=SOLU COMB  VALUE=  0.00000000    
 --- Number of total nodes = 7602
 --- Number of total elements = 1351
 --- Element load balance ratio = 0
 --- Time to combine distributed files = 0

 EXIT ANSYS WITHOUT SAVING DATABASE


 NUMBER OF WARNING MESSAGES ENCOUNTERED=          2
 NUMBER OF ERROR   MESSAGES ENCOUNTERED=          0

+--------------------- A N S Y S   S T A T I S T I C S ------------------------+

Release: 2020 R1            Build: 20.1       Update: UP20191203   Platform: WINDOWS x64 
Date Run: 09/30/2020   Time: 02:04     Process ID: 2328
Operating System: Windows 10  (Build: 19042)

Processor Model: Intel(R) Core(TM) i7-1065G7 CPU @ 1.30GHz

Compiler: Intel(R) FORTRAN Compiler Version 19.0.0  (Build: 20190206)
          Intel(R) C/C++ Compiler Version 19.0.0  (Build: 20190206)
          Intel(R) Math Kernel Library Version 2019.0.3 Product Build 20190125

Number of machines requested            :    1
Total number of cores available         :    8
Number of physical cores available      :    4
Number of processes requested           :    1
Number of threads per process requested :    1
Total number of cores requested         :    1 (Shared Memory Parallel)                    

GPU Acceleration: Not Requested

Job Name: file
Input File: dummy.dat
Working Directory: C:\Users\mende\AppData\Local\Temp\WB_PC_mende_8844_2\_ProjectScratch\Scr3A53

Total CPU time for main thread                    :        1.0 seconds
Total CPU time summed for all threads             :        0.9 seconds

Elapsed time spent obtaining a license            :        3.2 seconds
Elapsed time spent pre-processing model (/PREP7)  :        0.0 seconds
Elapsed time spent solution - preprocessing       :        0.0 seconds
Elapsed time spent computing solution             :        0.7 seconds
Elapsed time spent solution - postprocessing      :        0.0 seconds
Elapsed time spent post-processing model (/POST1) :        0.0 seconds
 
Equation solver used                              :            Sparse (symmetric)
Equation solver computational rate                :       17.1 Gflops
Equation solver effective I/O rate                :       10.3 GB/sec

Maximum total memory used                         :      164.0 MB
Maximum total memory allocated                    :     2112.0 MB
Total physical memory available                   :         16 GB

Total amount of I/O written to disk               :        0.0 GB
Total amount of I/O read from disk                :        0.0 GB

+------------------ E N D   A N S Y S   S T A T I S T I C S -------------------+


 *---------------------------------------------------------------------------*
 |                                                                           |
 |                            ANSYS RUN COMPLETED                            |
 |                                                                           |
 |---------------------------------------------------------------------------|
 |                                                                           |
 | Ansys 2020 R1               Build 20.1         UP20191203     WINDOWS x64 |
 |                                                                           |
 |---------------------------------------------------------------------------|
 |                                                                           |
 | Database Requested(-db)  1024 MB    Scratch Memory Requested      1024 MB |
 | Maximum Database Used       4 MB    Maximum Scratch Memory Used    160 MB |
 |                                                                           |
 |---------------------------------------------------------------------------|
 |                                                                           |
 |        CP Time      (sec) =          0.938       Time  =  02:04:51        |
 |        Elapsed Time (sec) =          6.000       Date  =  09/30/2020      |
 |                                                                           |
 *---------------------------------------------------------------------------*
