/batch
/config,noeldb,1     ! force off writing results to database
*get,_wallstrt,active,,time,wall
! ANSYS input file written by Workbench version 2020 R1
! File used for geometry attach: C:\Users\mende\Desktop\TC2 Beam Package Space Assy - 4 members\Beam Package Space Assy.SLDASM
/title,liverun--Static Structural (A5)
*DIM,_wb_ProjectScratch_dir,string,248
_wb_ProjectScratch_dir(1) = 'C:\Users\mende\Documents\repos\team_18\team challenge 2\Live run\ansys\_ProjectScratch\ScrA1F7\'
*DIM,_wb_SolverFiles_dir,string,248
_wb_SolverFiles_dir(1) = 'C:\Users\mende\Documents\repos\team_18\team challenge 2\Live run\ansys\liverun_files\dp8\SYS\MECH\'
*DIM,_wb_userfiles_dir,string,248
_wb_userfiles_dir(1) = 'C:\Users\mende\Documents\repos\team_18\team challenge 2\Live run\ansys\liverun_files\user_files\'
/com,--- Data in consistent NMM units. See Solving Units in the help system for more information.
/units,MPA
/nopr
/wb,file,start              !  signify a WB generated input file
/prep7
! Turn off shape checking because checks already performed inside WB mesher.
! See help system for more information.
SHPP,OFF,,NOWARN
/nolist
etcon,set             ! allow ANSYS to choose best KEYOP's for 180x elements
/com,*********** Nodes for the whole assembly ***********
nblock,3,,9396
(1i9,3e20.9e3)
        1     2.500000000E+03     7.700000000E+02     4.265000000E+02
        2     2.500000000E+03     7.500000000E+02     4.265000000E+02
        3     2.500000000E+03     7.700000000E+02     5.535000000E+02
        4     2.500000000E+03     7.500000000E+02     5.535000000E+02
        5     2.500000000E+03     7.500000000E+02     5.000000000E+02
        6     2.500000000E+03     2.700000000E+02     5.000000000E+02
        7     2.500000000E+03     3.900000000E+02     5.000000000E+02
        8     2.500000000E+03     5.100000000E+02     5.000000000E+02
        9     2.500000000E+03     6.300000000E+02     5.000000000E+02
       10     2.500000000E+03     2.700000000E+02     5.535000000E+02
       11     2.500000000E+03     2.500000000E+02     5.535000000E+02
       12     2.500000000E+03     2.500000000E+02     4.265000000E+02
       13     2.500000000E+03     2.700000000E+02     4.265000000E+02
       14     2.500000000E+03     2.700000000E+02     4.800000000E+02
       15     2.500000000E+03     7.500000000E+02     4.800000000E+02
       16     2.500000000E+03     6.300000000E+02     4.800000000E+02
       17     2.500000000E+03     5.100000000E+02     4.800000000E+02
       18     2.500000000E+03     3.900000000E+02     4.800000000E+02
       19     1.250000000E+03     8.655000000E+02     5.550000000E+02
       20     1.250000000E+03     8.455000000E+02     5.550000000E+02
! ... 8523 like lines cut
/wb,elem,start            !  set before creation of elements
/com,*********** Elements for Body 1 "3-1" ***********
et,1,187
eblock,19,solid,,872
(19i9)
        1        1        1        1        0        0        0        0       10        0     2655     6395     6552     6404     6413     7796     7862     7791     7792
     7910     7858
        1        1        1        1        0        0        0        0       10        0     2656     6231     6348     6577     6349     6826     7627     6828     6827
     7624     7631
        1        1        1        1        0        0        0        0       10        0     2657     6282     6562     6291     6472     7182     7280     7170     7178
     8136     7279
        1        1        1        1        0        0        0        0       10        0     2658     6197     6529     6199     6198     6650     6656     6646     6645
     6653     6651
        1        1        1        1        0        0        0        0       10        0     2659     6284     6564     6464     6554     7210     8109     7205     7209
     8248     8108
        1        1        1        1        0        0        0        0       10        0     2660     6259     6260     6580     6574     6987     7000     6993     6992
     6999     8258
        1        1        1        1        0        0        0        0       10        0     2661     6283     6423     6462     6292     7189     7971     7190     7185
     7281     7282
        1        1        1        1        0        0        0        0       10        0     2662     6283     6563     6292     6473     7195     7285     7185     7192
     8137     7284
        1        1        1        1        0        0        0        0       10        0     2663     6222     6234     6344     6443     6766     6842     6767     6770
     6845     7610
        1        1        1        1        0        0        0        0       10        0     2664     6220     6442     6222     6448     6757     6769     6756     6759
     8037     6772
! ... 1725 like lines cut
!Material Id = {DCCF4CAF-058B-48CA-97E2-C9425E7FF14A}
/com,*********** Elements for Body 2 "2-1" ***********
et,2,187
eblock,19,solid,,864
(19i9)
        2        2        2        2        0        0        0        0       10        0        1      162      171      363      353     1459     1520     1467     1466
     1519     2007
        2        2        2        2        0        0        0        0       10        0        2      162      363      343      353     1467     1992     1465     1466
     2007     1991
        2        2        2        2        0        0        0        0       10        0        3      162      363      171      180     1467     1520     1459     1460
     1572     1516
        2        2        2        2        0        0        0        0       10        0        4      181      353      343      363     1576     1991     1575     1577
     2007     1992
        2        2        2        2        0        0        0        0       10        0        5      162      343      363      373     1465     1992     1467     1468
     1993     2017
        2        2        2        2        0        0        0        0       10        0        6      162      342      180      171     1464     1569     1460     1459
     1517     1516
        2        2        2        2        0        0        0        0       10        0        7      172      353      343      181     1523     1991     1522     1521
     1576     1575
        2        2        2        2        0        0        0        0       10        0        8      171      352      342      180     1518     1988     1517     1516
     1570     1569
        2        2        2        2        0        0        0        0       10        0        9      162      180      342      189     1460     1569     1464     1461
     1568     1623
        2        2        2        2        0        0        0        0       10        0       10      163      181      343      190     1471     1575     1474     1472
     1574     1629
! ... 1709 like lines cut
!Material Id = {221368B9-7693-47C6-93A3-203B9786CE32}
/com,*********** Elements for Body 3 "4-1" ***********
et,3,187
eblock,19,solid,,893
(19i9)
        3        3        3        3        0        0        0        0       10        0     6687     8344     8475     8511     8353     9196     9937     9197     9193
     9288     9289
        3        3        3        3        0        0        0        0       10        0     6688     8353     8475     8511     8522     9288     9937     9289     9290
     9938    10089
        3        3        3        3        0        0        0        0       10        0     6689     8344     8353     8619     8475     9193     9292     9201     9196
     9288     9941
        3        3        3        3        0        0        0        0       10        0     6690     8344     8511     8475     8466     9197     9937     9196     9195
     9880     9879
        3        3        3        3        0        0        0        0       10        0     6691     8475     8511     8522     8618     9937    10089     9938     9940
    10092    10149
        3        3        3        3        0        0        0        0       10        0     6692     8344     8475     8619     8609     9196     9941     9201     9200
     9939    10293
        3        3        3        3        0        0        0        0       10        0     6693     8344     8523     8619     8353     9199    10150     9201     9193
     9291     9292
        3        3        3        3        0        0        0        0       10        0     6694     8344     8511     8466     8448     9197     9880     9195     9194
     9760     9759
        3        3        3        3        0        0        0        0       10        0     6695     8344     8609     8466     8475     9200     9884     9195     9196
     9939     9879
        3        3        3        3        0        0        0        0       10        0     6696     8466     8618     8511     8475     9885    10092     9880     9879
     9940     9937
! ... 1767 like lines cut
!Material Id = {DDF3EABA-B765-451F-A24D-B16365D48977}
/com,*********** Elements for Body 4 "1-1" ***********
et,4,187
eblock,19,solid,,1000
(19i9)
        4        4        4        4        0        0        0        0       10        0      865     2085     2462     2278     2264     2643     3860     2642     2640
     3814     3812
        4        4        4        4        0        0        0        0       10        0      866     2085     2494     2265     2100     2644     3818     2641     2639
     2720     2717
        4        4        4        4        0        0        0        0       10        0      867     2085     2462     2265     2494     2643     3817     2641     2644
     4333     3818
        4        4        4        4        0        0        0        0       10        0      868     2278     2299     2462     2494     3858     3927     3860     3861
     3928     4333
        4        4        4        4        0        0        0        0       10        0      869     2264     2369     2462     2278     3813     4110     3814     3812
     3859     3860
        4        4        4        4        0        0        0        0       10        0      870     2100     2265     2277     2494     2717     3815     2718     2720
     3818     3857
        4        4        4        4        0        0        0        0       10        0      871     2265     2462     2446     2494     3817     4283     3816     3818
     4333     4285
        4        4        4        4        0        0        0        0       10        0      872     2121     2494     2462     2299     2871     4333     2869     2863
     3928     3927
        4        4        4        4        0        0        0        0       10        0      873     2278     2369     2462     2299     3859     4110     3860     3858
     3926     3927
        4        4        4        4        0        0        0        0       10        0      874     2094     2369     2264     2278     2690     3813     2684     2687
     3859     3812
! ... 1981 like lines cut
!Material Id = {55D22436-3643-4696-9C29-FB0667E8A5BA}
/wb,elem,end               !  done creating elements
/com,*********** Send User Defined Coordinate System(s) ***********
csys,0
toffst,273.15,  ! Temperature offset from absolute zero
/com,*********** Set Reference Temperature ***********
tref,22.
/wb,mat,start              !  starting to send materials
/com,*********** Send Materials ***********
Temperature = 'TEMP' ! Temperature
MP,DENS,1,7.85e-09,	! tonne mm^-3
MP,ALPX,1,1.2e-05,	! C^-1
MP,C,1,434000000,	! mm^2 s^-2 C^-1
MP,KXX,1,60.5,	! tonne mm s^-3 C^-1
MP,RSVX,1,0.00017,	! ohm mm
MP,EX,1,200000,	! tonne s^-2 mm^-1
MP,NUXY,1,0.3,
MP,MURX,1,10000,

Temperature = 'TEMP' ! Temperature
MP,DENS,2,7.85e-09,	! tonne mm^-3
MP,ALPX,2,1.2e-05,	! C^-1
MP,C,2,434000000,	! mm^2 s^-2 C^-1
MP,KXX,2,60.5,	! tonne mm s^-3 C^-1
MP,RSVX,2,0.00017,	! ohm mm
MP,EX,2,200000,	! tonne s^-2 mm^-1
MP,NUXY,2,0.3,
MP,MURX,2,10000,

Temperature = 'TEMP' ! Temperature
MP,DENS,3,7.85e-09,	! tonne mm^-3
MP,ALPX,3,1.2e-05,	! C^-1
MP,C,3,434000000,	! mm^2 s^-2 C^-1
MP,KXX,3,60.5,	! tonne mm s^-3 C^-1
MP,RSVX,3,0.00017,	! ohm mm
MP,EX,3,200000,	! tonne s^-2 mm^-1
MP,NUXY,3,0.3,
MP,MURX,3,10000,

Temperature = 'TEMP' ! Temperature
MP,DENS,4,7.85e-09,	! tonne mm^-3
MP,ALPX,4,1.2e-05,	! C^-1
MP,C,4,434000000,	! mm^2 s^-2 C^-1
MP,KXX,4,60.5,	! tonne mm s^-3 C^-1
MP,RSVX,4,0.00017,	! ohm mm
MP,EX,4,200000,	! tonne s^-2 mm^-1
MP,NUXY,4,0.3,
MP,MURX,4,10000,

/wb,mat,end                !  done sending materials
!************************* Model Summary ********************
!3-1,	Structural Steel,	matid,	1
!2-1,	Structural Steel,	matid,	2
!4-1,	Structural Steel,	matid,	3
!1-1,	Structural Steel,	matid,	4
!************************* End Model Summary ********************
! get the diagonal of the bounding box. Needed later for other things
*get,_xmin,node,,mnloc,x
*get,_ymin,node,,mnloc,y
*get,_zmin,node,,mnloc,z
*get,_xmax,node,,mxloc,x
*get,_ymax,node,,mxloc,y
*get,_zmax,node,,mxloc,z
_ASMDIAG=(_xmax-_xmin)*(_xmax-_xmin)+(_ymax-_ymin)*(_ymax-_ymin)+(_zmax-_zmin)*(_zmax-_zmin)
_ASMDIAG=SQRT(_ASMDIAG)
/wb,contact,start          !  starting to send contact
/com,*********** Create Contact "Contact Region" ***********
/com,            Real Constant Set For Above Contact Is 6 & 5 
*set,tid,6
*set,cid,5
r,tid
r,cid
et,tid,170
et,cid,174
eblock,10,,,26
(15i9)
     8372        6        6        6        0     6221     6441     6449     6449     6762     8034     6449     6764
     8373        6        6        6        0     6449     6209     6217     6217     6700     6697     6217     6739
     8374        6        6        6        0     6204     6440     6218     6218     6677     6743     6218     6676
     8375        6        6        6        0     6209     6213     6214     6214     6695     6726     6214     6696
     8376        6        6        6        0     6446     6212     6219     6219     6725     6719     6219     6754
     8377        6        6        6        0     6448     6210     6221     6221     6712     6705     6221     6763
     8378        6        6        6        0     6211     6442     6220     6220     6716     6757     6220     6713
     8379        6        6        6        0     6443     6211     6447     6447     6717     6718     6447     8038
     8380        6        6        6        0     6208     6444     6218     6218     6691     6744     6218     6689
     8381        6        6        6        0     6204     6218     6205     6205     6676     6679     6205     6675
     8382        6        6        6        0     6441     6209     6449     6449     6698     6700     6449     8034
     8383        6        6        6        0     6209     6214     6445     6445     6696     6729     6445     6699
     8384        6        6        6        0     6218     6444     6446     6446     6744     8039     6446     6745
     8385        6        6        6        0     6215     6217     6445     6445     6732     6738     6445     6733
     8386        6        6        6        0     6210     6441     6221     6221     6710     6762     6221     6705
     8387        6        6        6        0     6444     6212     6446     6446     6724     6725     6446     8039
     8388        6        6        6        0     6220     6442     6448     6448     6757     8037     6448     6759
     8389        6        6        6        0     6212     6443     6219     6219     6723     6753     6219     6719
     8390        6        6        6        0     6215     6216     6217     6217     6731     6735     6217     6732
     8391        6        6        6        0     6209     6445     6217     6217     6699     6738     6217     6697
! ... 7 like lines cut
eblock,10,,,26
(15i9)
     8398        5        5        5        0     6221     6441     6449     6449     6762     8034     6449     6764
     8399        5        5        5        0     6449     6209     6217     6217     6700     6697     6217     6739
     8400        5        5        5        0     6204     6440     6218     6218     6677     6743     6218     6676
     8401        5        5        5        0     6209     6213     6214     6214     6695     6726     6214     6696
     8402        5        5        5        0     6446     6212     6219     6219     6725     6719     6219     6754
     8403        5        5        5        0     6448     6210     6221     6221     6712     6705     6221     6763
     8404        5        5        5        0     6211     6442     6220     6220     6716     6757     6220     6713
     8405        5        5        5        0     6443     6211     6447     6447     6717     6718     6447     8038
     8406        5        5        5        0     6208     6444     6218     6218     6691     6744     6218     6689
     8407        5        5        5        0     6204     6218     6205     6205     6676     6679     6205     6675
     8408        5        5        5        0     6441     6209     6449     6449     6698     6700     6449     8034
     8409        5        5        5        0     6209     6214     6445     6445     6696     6729     6445     6699
     8410        5        5        5        0     6218     6444     6446     6446     6744     8039     6446     6745
     8411        5        5        5        0     6215     6217     6445     6445     6732     6738     6445     6733
     8412        5        5        5        0     6210     6441     6221     6221     6710     6762     6221     6705
     8413        5        5        5        0     6444     6212     6446     6446     6724     6725     6446     8039
     8414        5        5        5        0     6220     6442     6448     6448     6757     8037     6448     6759
     8415        5        5        5        0     6212     6443     6219     6219     6723     6753     6219     6719
     8416        5        5        5        0     6215     6216     6217     6217     6731     6735     6217     6732
     8417        5        5        5        0     6209     6445     6217     6217     6699     6738     6217     6697
! ... 7 like lines cut
eblock,10,,,26
(15i9)
     8424        5        6        5        0      192        6      200      200      424      426      200     1638
     8425        5        6        5        0        7      192      200      200      429     1638      200      431
     8426        5        6        5        0       12       13       14       14      454      460       14      455
     8427        5        6        5        0        6       10       11       11      421      447       11      422
     8428        5        6        5        0       18        7      200      200      428      431      200      484
     8429        5        6        5        0      200        6       14       14      426      423       14      464
     8430        5        6        5        0       16      197      195      195      473     1651      195      472
     8431        5        6        5        0      193      199        8        8     1642      437        8      435
     8432        5        6        5        0        9       16      195      195      441      472      195      443
     8433        5        6        5        0        6      196       14       14      425      463       14      423
     8434        5        6        5        0       15      195      197      197      468     1651      197      469
     8435        5        6        5        0       12       14      196      196      455      463      196      456
     8436        5        6        5        0        8      199       17       17      437      478       17      434
     8437        5        6        5        0        8       17      194      194      434      476      194      436
     8438        5        6        5        0      194      198        9        9     1646      444        9      442
     8439        5        6        5        0        3        4        5        5      408      414        5      409
     8440        5        6        5        0        5      195       15       15      419      468       15      417
     8441        5        6        5        0        3        5      191      191      409      418      191      410
     8442        5        6        5        0        1      191       15       15      401      467       15      400
     8443        5        6        5        0        1       15        2        2      400      405        2      399
! ... 7 like lines cut
eblock,10,,,26
(15i9)
     8450        6        5        6        0      192        6      200      200      424      426      200     1638
     8451        6        5        6        0        7      192      200      200      429     1638      200      431
     8452        6        5        6        0       12       13       14       14      454      460       14      455
     8453        6        5        6        0        6       10       11       11      421      447       11      422
     8454        6        5        6        0       18        7      200      200      428      431      200      484
     8455        6        5        6        0      200        6       14       14      426      423       14      464
     8456        6        5        6        0       16      197      195      195      473     1651      195      472
     8457        6        5        6        0      193      199        8        8     1642      437        8      435
     8458        6        5        6        0        9       16      195      195      441      472      195      443
     8459        6        5        6        0        6      196       14       14      425      463       14      423
     8460        6        5        6        0       15      195      197      197      468     1651      197      469
     8461        6        5        6        0       12       14      196      196      455      463      196      456
     8462        6        5        6        0        8      199       17       17      437      478       17      434
     8463        6        5        6        0        8       17      194      194      434      476      194      436
     8464        6        5        6        0      194      198        9        9     1646      444        9      442
     8465        6        5        6        0        3        4        5        5      408      414        5      409
     8466        6        5        6        0        5      195       15       15      419      468       15      417
     8467        6        5        6        0        3        5      191      191      409      418      191      410
     8468        6        5        6        0        1      191       15       15      401      467       15      400
     8469        6        5        6        0        1       15        2        2      400      405        2      399
! ... 7 like lines cut
keyo,cid,8,2               ! auto create asymmetric contact (from Program Controlled setting)
keyo,cid,10,0              ! adjust contact stiffness each NR iteration (from Program Controlled setting)
keyo,cid,12,5              ! bonded always
keyo,cid,18,1              ! small sliding turned on by application
keyo,cid,2,0               ! augmented Lagrange (from Program Controlled setting)
keyo,cid,4,0               ! on Gauss point (from Program Controlled setting)
keyo,cid,9,1               ! ignore initial gaps/penetration
keyo,cid,7,0               ! No Prediction
rmod,tid,3,10.      ! FKN
rmod,tid,5,0.       ! ICONT
rmod,tid,6,0.       ! PINB
rmod,tid,10,0.      ! CNOF
rmod,tid,12,0.      ! FKT
rmod,tid,36,100     ! WB DSID
rmod,cid,3,10.      ! FKN
rmod,cid,5,0.       ! ICONT
rmod,cid,6,0.       ! PINB
rmod,cid,10,0.      ! CNOF
rmod,cid,12,0.      ! FKT
rmod,cid,36,100     ! WB DSID
/com,*********** Create Contact "Contact Region 2" ***********
/com,            Real Constant Set For Above Contact Is 8 & 7 
*set,tid,8
*set,cid,7
r,tid
r,cid
et,tid,170
et,cid,174
eblock,10,,,26
(15i9)
     8476        8        8        8        0     6193     6432     6202     6202     6627     6669     6202     6622
     8477        8        8        8        0     6439     6191     6199     6199     6612     6609     6199     6655
     8478        8        8        8        0     6431     6191     6439     6439     6610     6612     6439     8010
     8479        8        8        8        0     6202     6432     6438     6438     6669     8014     6438     6671
     8480        8        8        8        0     6437     6193     6202     6202     6629     6622     6202     6670
     8481        8        8        8        0     6188     6189     6190     6190     6594     6600     6190     6595
     8482        8        8        8        0     6188     6190     6430     6430     6595     6604     6430     6596
     8483        8        8        8        0     6434     6194     6436     6436     6636     6637     6436     8018
     8484        8        8        8        0     6200     6434     6436     6436     6658     8018     6436     6659
     8485        8        8        8        0     6190     6434     6200     6200     6605     6658     6200     6603
     8486        8        8        8        0     6186     6430     6200     6200     6587     6657     6200     6586
     8487        8        8        8        0     6191     6195     6196     6196     6607     6638     6196     6608
     8488        8        8        8        0     6437     6201     6433     6433     6666     6664     6433     8017
     8489        8        8        8        0     6197     6198     6199     6199     6645     6651     6199     6646
     8490        8        8        8        0     6186     6200     6187     6187     6586     6591     6187     6585
     8491        8        8        8        0     6191     6435     6199     6199     6611     6654     6199     6609
     8492        8        8        8        0     6438     6192     6203     6203     6618     6615     6203     6672
     8493        8        8        8        0     6433     6193     6437     6437     6628     6629     6437     8017
     8494        8        8        8        0     6439     6192     6431     6431     6619     6616     6431     8010
     8495        8        8        8        0     6191     6196     6435     6435     6608     6641     6435     6611
! ... 7 like lines cut
eblock,10,,,26
(15i9)
     8502        7        7        7        0     6193     6432     6202     6202     6627     6669     6202     6622
     8503        7        7        7        0     6439     6191     6199     6199     6612     6609     6199     6655
     8504        7        7        7        0     6431     6191     6439     6439     6610     6612     6439     8010
     8505        7        7        7        0     6202     6432     6438     6438     6669     8014     6438     6671
     8506        7        7        7        0     6437     6193     6202     6202     6629     6622     6202     6670
     8507        7        7        7        0     6188     6189     6190     6190     6594     6600     6190     6595
     8508        7        7        7        0     6188     6190     6430     6430     6595     6604     6430     6596
     8509        7        7        7        0     6434     6194     6436     6436     6636     6637     6436     8018
     8510        7        7        7        0     6200     6434     6436     6436     6658     8018     6436     6659
     8511        7        7        7        0     6190     6434     6200     6200     6605     6658     6200     6603
     8512        7        7        7        0     6186     6430     6200     6200     6587     6657     6200     6586
     8513        7        7        7        0     6191     6195     6196     6196     6607     6638     6196     6608
     8514        7        7        7        0     6437     6201     6433     6433     6666     6664     6433     8017
     8515        7        7        7        0     6197     6198     6199     6199     6645     6651     6199     6646
     8516        7        7        7        0     6186     6200     6187     6187     6586     6591     6187     6585
     8517        7        7        7        0     6191     6435     6199     6199     6611     6654     6199     6609
     8518        7        7        7        0     6438     6192     6203     6203     6618     6615     6203     6672
     8519        7        7        7        0     6433     6193     6437     6437     6628     6629     6437     8017
     8520        7        7        7        0     6439     6192     6431     6431     6619     6616     6431     8010
     8521        7        7        7        0     6191     6196     6435     6435     6608     6641     6435     6611
! ... 7 like lines cut
eblock,10,,,26
(15i9)
     8528        7        8        7        0     8279     8495     8289     8289     8724     8777     8289     8721
     8529        7        8        7        0     8292     8490     8498     8498     8793    10007     8498     8795
     8530        7        8        7        0     8286     8287     8288     8288     8763     8767     8288     8764
     8531        7        8        7        0     8291     8492     8282     8282     8789     8749     8282     8745
     8532        7        8        7        0     8286     8288     8494     8494     8764     8770     8494     8765
     8533        7        8        7        0     8281     8292     8497     8497     8737     8794     8497     8742
     8534        7        8        7        0     8275     8289     8276     8276     8708     8711     8276     8707
     8535        7        8        7        0     8281     8497     8491     8491     8742    10011     8491     8741
     8536        7        8        7        0     8493     8290     8495     8495     8783     8784     8495    10013
     8537        7        8        7        0     8283     8496     8290     8290     8755     8785     8290     8750
     8538        7        8        7        0     8277     8278     8279     8279     8714     8718     8279     8715
     8539        7        8        7        0     8492     8496     8283     8283    10012     8755     8283     8753
     8540        7        8        7        0     8280     8288     8498     8498     8730     8771     8498     8733
     8541        7        8        7        0     8275     8489     8289     8289     8709     8776     8289     8708
     8542        7        8        7        0     8280     8498     8490     8490     8733    10007     8490     8731
     8543        7        8        7        0     8491     8291     8282     8282     8788     8745     8282     8748
     8544        7        8        7        0     8280     8285     8494     8494     8729     8761     8494     8732
     8545        7        8        7        0     8281     8490     8292     8292     8740     8793     8292     8737
     8546        7        8        7        0     8280     8284     8285     8285     8728     8758     8285     8729
     8547        7        8        7        0     8493     8495     8279     8279    10013     8724     8279     8723
! ... 7 like lines cut
eblock,10,,,26
(15i9)
     8554        8        7        8        0     8279     8495     8289     8289     8724     8777     8289     8721
     8555        8        7        8        0     8292     8490     8498     8498     8793    10007     8498     8795
     8556        8        7        8        0     8286     8287     8288     8288     8763     8767     8288     8764
     8557        8        7        8        0     8291     8492     8282     8282     8789     8749     8282     8745
     8558        8        7        8        0     8286     8288     8494     8494     8764     8770     8494     8765
     8559        8        7        8        0     8281     8292     8497     8497     8737     8794     8497     8742
     8560        8        7        8        0     8275     8289     8276     8276     8708     8711     8276     8707
     8561        8        7        8        0     8281     8497     8491     8491     8742    10011     8491     8741
     8562        8        7        8        0     8493     8290     8495     8495     8783     8784     8495    10013
     8563        8        7        8        0     8283     8496     8290     8290     8755     8785     8290     8750
     8564        8        7        8        0     8277     8278     8279     8279     8714     8718     8279     8715
     8565        8        7        8        0     8492     8496     8283     8283    10012     8755     8283     8753
     8566        8        7        8        0     8280     8288     8498     8498     8730     8771     8498     8733
     8567        8        7        8        0     8275     8489     8289     8289     8709     8776     8289     8708
     8568        8        7        8        0     8280     8498     8490     8490     8733    10007     8490     8731
     8569        8        7        8        0     8491     8291     8282     8282     8788     8745     8282     8748
     8570        8        7        8        0     8280     8285     8494     8494     8729     8761     8494     8732
     8571        8        7        8        0     8281     8490     8292     8292     8740     8793     8292     8737
     8572        8        7        8        0     8280     8284     8285     8285     8728     8758     8285     8729
     8573        8        7        8        0     8493     8495     8279     8279    10013     8724     8279     8723
! ... 7 like lines cut
keyo,cid,8,2               ! auto create asymmetric contact (from Program Controlled setting)
keyo,cid,10,0              ! adjust contact stiffness each NR iteration (from Program Controlled setting)
keyo,cid,12,5              ! bonded always
keyo,cid,18,1              ! small sliding turned on by application
keyo,cid,2,0               ! augmented Lagrange (from Program Controlled setting)
keyo,cid,4,0               ! on Gauss point (from Program Controlled setting)
keyo,cid,9,1               ! ignore initial gaps/penetration
keyo,cid,7,0               ! No Prediction
rmod,tid,3,10.      ! FKN
rmod,tid,5,0.       ! ICONT
rmod,tid,6,0.       ! PINB
rmod,tid,10,0.      ! CNOF
rmod,tid,12,0.      ! FKT
rmod,tid,36,103     ! WB DSID
rmod,cid,3,10.      ! FKN
rmod,cid,5,0.       ! ICONT
rmod,cid,6,0.       ! PINB
rmod,cid,10,0.      ! CNOF
rmod,cid,12,0.      ! FKT
rmod,cid,36,103     ! WB DSID
/com,*********** Create Contact "Contact Region 3" ***********
/com,            Real Constant Set For Above Contact Is 10 & 9 
*set,tid,10
*set,cid,9
r,tid
r,cid
et,tid,170
et,cid,174
eblock,10,,,30
(15i9)
     8580       10       10       10        0       35      205      209      209      568     1683      209      570
     8581       10       10       10        0       34      206      208      208      563     1686      208      564
     8582       10       10       10        0       38       25      212      212      516      519      212      587
     8583       10       10       10        0       36      204      210      210      576     1680      210      578
     8584       10       10       10        0       23      206       34       34      502      563       34      500
     8585       10       10       10        0       24       30      207      207      508      547      207      511
     8586       10       10       10        0       19       34       20       20      487      490       20      486
     8587       10       10       10        0       21       22       23       23      493      497       23      494
     8588       10       10       10        0       27       36      209      209      530      577      209      535
     8589       10       10       10        0       25      202      212      212      517     1674      212      519
     8590       10       10       10        0       23       34      201      201      500      562      201      501
     8591       10       10       10        0      202       33      212      212      556      558      212     1674
     8592       10       10       10        0       28      208      206      206      541     1686      206      540
     8593       10       10       10        0       26      210      204      204      527     1680      204      526
     8594       10       10       10        0       28      205       35       35      539      568       35      538
     8595       10       10       10        0       28       35      208      208      538      569      208      541
     8596       10       10       10        0       24       33      202      202      509      556      202      510
     8597       10       10       10        0       25       38      203      203      516      585      203      518
     8598       10       10       10        0      203       38      211      211      585      586      211     1678
     8599       10       10       10        0       19      201       34       34      488      562       34      487
! ... 11 like lines cut
eblock,10,,,30
(15i9)
     8610        9        9        9        0       35      205      209      209      568     1683      209      570
     8611        9        9        9        0       34      206      208      208      563     1686      208      564
     8612        9        9        9        0       38       25      212      212      516      519      212      587
     8613        9        9        9        0       36      204      210      210      576     1680      210      578
     8614        9        9        9        0       23      206       34       34      502      563       34      500
     8615        9        9        9        0       24       30      207      207      508      547      207      511
     8616        9        9        9        0       19       34       20       20      487      490       20      486
     8617        9        9        9        0       21       22       23       23      493      497       23      494
     8618        9        9        9        0       27       36      209      209      530      577      209      535
     8619        9        9        9        0       25      202      212      212      517     1674      212      519
     8620        9        9        9        0       23       34      201      201      500      562      201      501
     8621        9        9        9        0      202       33      212      212      556      558      212     1674
     8622        9        9        9        0       28      208      206      206      541     1686      206      540
     8623        9        9        9        0       26      210      204      204      527     1680      204      526
     8624        9        9        9        0       28      205       35       35      539      568       35      538
     8625        9        9        9        0       28       35      208      208      538      569      208      541
     8626        9        9        9        0       24       33      202      202      509      556      202      510
     8627        9        9        9        0       25       38      203      203      516      585      203      518
     8628        9        9        9        0      203       38      211      211      585      586      211     1678
     8629        9        9        9        0       19      201       34       34      488      562       34      487
! ... 11 like lines cut
eblock,10,,,30
(15i9)
     8640        9       10        9        0     2254     2068     2256     2256     2555     2556     2256     3780
     8641        9       10        9        0     2251     2065     2259     2259     2535     2536     2259     3773
     8642        9       10        9        0     2071     2073     2255     2255     2567     2575     2255     2568
     8643        9       10        9        0     2074     2254     2256     2256     2580     3780     2256     2581
     8644        9       10        9        0     2258     2066     2077     2077     2542     2539     2077     2598
     8645        9       10        9        0     2064     2255     2073     2073     2530     2575     2073     2528
     8646        9       10        9        0     2257     2067     2076     2076     2549     2546     2076     2592
     8647        9       10        9        0     2068     2253     2075     2075     2554     2584     2075     2553
     8648        9       10        9        0     2250     2064     2260     2260     2529     2531     2260     3770
     8649        9       10        9        0     2259     2065     2078     2078     2536     2533     2078     2604
     8650        9       10        9        0     2256     2068     2075     2075     2556     2553     2075     2585
     8651        9       10        9        0     2061     2062     2063     2063     2513     2519     2063     2514
     8652        9       10        9        0     2253     2067     2257     2257     2548     2549     2257     3778
     8653        9       10        9        0     2071     2072     2073     2073     2566     2572     2073     2567
     8654        9       10        9        0     2063     2074     2249     2249     2522     2579     2249     2523
     8655        9       10        9        0     2063     2254     2074     2074     2524     2580     2074     2522
     8656        9       10        9        0     2252     2066     2258     2258     2541     2542     2258     3775
     8657        9       10        9        0     2061     2063     2249     2249     2514     2523     2249     2515
     8658        9       10        9        0     2064     2070     2255     2255     2527     2562     2255     2530
     8659        9       10        9        0     2059     2249     2074     2074     2506     2579     2074     2505
! ... 11 like lines cut
eblock,10,,,30
(15i9)
     8670       10        9       10        0     2254     2068     2256     2256     2555     2556     2256     3780
     8671       10        9       10        0     2251     2065     2259     2259     2535     2536     2259     3773
     8672       10        9       10        0     2071     2073     2255     2255     2567     2575     2255     2568
     8673       10        9       10        0     2074     2254     2256     2256     2580     3780     2256     2581
     8674       10        9       10        0     2258     2066     2077     2077     2542     2539     2077     2598
     8675       10        9       10        0     2064     2255     2073     2073     2530     2575     2073     2528
     8676       10        9       10        0     2257     2067     2076     2076     2549     2546     2076     2592
     8677       10        9       10        0     2068     2253     2075     2075     2554     2584     2075     2553
     8678       10        9       10        0     2250     2064     2260     2260     2529     2531     2260     3770
     8679       10        9       10        0     2259     2065     2078     2078     2536     2533     2078     2604
     8680       10        9       10        0     2256     2068     2075     2075     2556     2553     2075     2585
     8681       10        9       10        0     2061     2062     2063     2063     2513     2519     2063     2514
     8682       10        9       10        0     2253     2067     2257     2257     2548     2549     2257     3778
     8683       10        9       10        0     2071     2072     2073     2073     2566     2572     2073     2567
     8684       10        9       10        0     2063     2074     2249     2249     2522     2579     2249     2523
     8685       10        9       10        0     2063     2254     2074     2074     2524     2580     2074     2522
     8686       10        9       10        0     2252     2066     2258     2258     2541     2542     2258     3775
     8687       10        9       10        0     2061     2063     2249     2249     2514     2523     2249     2515
     8688       10        9       10        0     2064     2070     2255     2255     2527     2562     2255     2530
     8689       10        9       10        0     2059     2249     2074     2074     2506     2579     2074     2505
! ... 11 like lines cut
keyo,cid,8,2               ! auto create asymmetric contact (from Program Controlled setting)
keyo,cid,10,0              ! adjust contact stiffness each NR iteration (from Program Controlled setting)
keyo,cid,12,5              ! bonded always
keyo,cid,18,1              ! small sliding turned on by application
keyo,cid,2,0               ! augmented Lagrange (from Program Controlled setting)
keyo,cid,4,0               ! on Gauss point (from Program Controlled setting)
keyo,cid,9,1               ! ignore initial gaps/penetration
keyo,cid,7,0               ! No Prediction
rmod,tid,3,10.      ! FKN
rmod,tid,5,0.       ! ICONT
rmod,tid,6,0.       ! PINB
rmod,tid,10,0.      ! CNOF
rmod,tid,12,0.      ! FKT
rmod,tid,36,106     ! WB DSID
rmod,cid,3,10.      ! FKN
rmod,cid,5,0.       ! ICONT
rmod,cid,6,0.       ! PINB
rmod,cid,10,0.      ! CNOF
rmod,cid,12,0.      ! FKT
rmod,cid,36,106     ! WB DSID
nsel,all
esel,all
/wb,contact,end            !  done creating contacts
/golist
/wb,load,start             !  starting to send loads
/com,*********** Fixed Supports ***********
CMBLOCK,_FIXEDSU,NODE,      117
(8i10)
      2079      2080      2081      2082      2083      2084      2085      2086
      2087      2088      2089      2090      2091      2092      2093      2094
      2095      2096      2097      2098      2099      2100      2261      2262
      2263      2264      2265      2266      2267      2268      2269      2270
      2271      2272      2273      2274      2275      2276      2277      2278
      2610      2611      2613      2614      2617      2618      2620      2621
      2624      2625      2626      2627      2628      2632      2633      2634
      2635      2636      2639      2640      2641      2642      2645      2646
      2647      2648      2651      2652      2653      2654      2658      2659
      2660      2661      2665      2666      2667      2668      2671      2672
      2675      2677      2678      2680      2681      2684      2685      2686
      2687      2691      2692      2693      2696      2697      2698      2700
      2701      2702      2705      2706      2707      2711      2712      2713
      2717      2718      2719      3800      3801      3812      3815      3819
      3821      3825      3829      3834      3835
cmsel,s,_FIXEDSU
d,all,all
nsel,all
/com,*********** Define Force Using Surface Effect Elements ***********
local,12,0,0.,0.,0.,0.,0.,0.
csys,0
et,11,154
eblock,10,,,16
(15i9)
     8700       11       11       11       12     8268     8270     8271     8271     8678     8687     8271     8679
     8701       11       11       11       12     8485     8273     8487     8487     8701     8702     8487     9991
     8702       11       11       11       12     8274     8484     8488     8488     8704     9986     8488     8705
     8703       11       11       11       12     8263     8274     8264     8264     8656     8662     8264     8653
     8704       11       11       11       12     8271     8272     8273     8273     8691     8698     8273     8692
     8705       11       11       11       12     8263     8267     8274     8274     8655     8673     8274     8656
     8706       11       11       11       12     8265     8266     8267     8267     8665     8670     8267     8666
     8707       11       11       11       12     8268     8269     8270     8270     8677     8684     8270     8678
     8708       11       11       11       12     8263     8265     8267     8267     8654     8666     8267     8655
     8709       11       11       11       12     8483     8487     8486     8486     9982     9996     8486     9981
     8710       11       11       11       12     8267     8484     8274     8274     8674     8704     8274     8673
     8711       11       11       11       12     8486     8488     8483     8483     9997     9983     8483     9981
     8712       11       11       11       12     8268     8273     8485     8485     8680     8701     8485     8681
     8713       11       11       11       12     8483     8488     8484     8484     9983     9986     8484     9979
     8714       11       11       11       12     8485     8487     8483     8483     9991     9982     8483     9980
     8715       11       11       11       12     8268     8271     8273     8273     8679     8692     8273     8680
-1
esel,s,type,,11
keyop,11,2,1                ! Apply load in local coordinate system
keyop,11,7,1                ! Use original area so load is constant in large deformation
keyop,11,11,2               ! Use real and not project area
esel,all
/gst,on,on
fini
*get,_numnode,node,0,count
*get,_numelem,elem,0,count
*get, _MAXELEMNUM, elem, 0, NUM, MAX
*get, _MAXNODENUM, node, 0, NUM, MAX
*get, _MAXELEMTYPE, etyp, 0, NUM, MAX
*get, _MAXREALCONST, real, 0, NUM, MAX
/go
/wb,load,end               !  done creating loads
/com,--- Number of total nodes = %_numnode%
/com,--- Number of contact elements = 344
/com,--- Number of spring elements = 0
/com,--- Number of bearing elements = 0
/com,--- Number of solid elements = 3629
/com,--- Number of condensed parts = 0
/com,--- Number of total elements = %_numelem%
*get,_wallbsol,active,,time,wall
/com,****************************************************************************
/com,*************************    SOLUTION       ********************************
/com,****************************************************************************
/solu
antype,0                   ! static analysis
_thickRatio=  0     ! Ratio of thick parts in the model
eqsl,sparse,,,,,1
cntr,print,1               ! print out contact info and also make no initial contact an error
nldiag,cont,iter           ! print out contact info each equilibrium iteration
rescontrol,,none                 ! Do not keep any restart files
/com,****************************************************
/com,******************* SOLVE FOR LS 1 OF 1 ****************
esel,s,type,,11
nsle
sfe,all,1,pres,1,0.
sfe,all,2,pres,1,-20.8333333333271
sfe,all,3,pres,1,0.
nsel,all
esel,all
/nopr
/gopr
nsub,1,1,1
time,1.
outres,erase
outres,all,none
outres,nsol,all,
outres,rsol,all
outres,eangl,all
outres,etmp,all
outres,veng,all
outres,strs,all,
outres,epel,all,
outres,eppl,all,
outres,cont,all,
! *********** WB SOLVE COMMAND ***********
! check interactive state
*get,ANSINTER_,active,,int
*if,ANSINTER_,ne,0,then
/eof
*endif
solve
/com *************** Write FE CONNECTORS ********* 
CEWRITE,file,ce,,INTE
/com,****************************************************
/com,*************** FINISHED SOLVE FOR LS 1 *************
*get,_wallasol,active,,time,wall
/nopr
*get,_numnode,node,0,count
*get,_numelem,elem,0,count
*get, _MAXELEMNUM, elem, 0, NUM, MAX
*get, _MAXNODENUM, node, 0, NUM, MAX,,,INTERNAL
*get, _MAXELEMTYPE, etyp, 0, NUM, MAX
*get, _MAXREALCONST, real, 0, NUM, MAX
/gopr
/post1
xmlo,ENCODING,ISO-8859-1
xmlo,parm
/xml,parm,xml
fini
/gopr
*get,_walldone,active,,time,wall
_preptime=(_wallbsol-_wallstrt)*3600
_solvtime=(_wallasol-_wallbsol)*3600
_posttime=(_walldone-_wallasol)*3600
_totaltim=(_walldone-_wallstrt)*3600
*get,_dlbratio,active,0,solu,dlbr
*get,_combtime,active,0,solu,comb
/com,--- Number of total nodes = %_numnode%
/com,--- Number of total elements = %_numelem%
/com,--- Element load balance ratio = %_dlbratio%
/com,--- Time to combine distributed files = %_combtime%
/wb,file,end               ! done with WB generated input
