
 ANSYS Academic Teaching Advanced                  


 *------------------------------------------------------------------*
 |                                                                  |
 |   W E L C O M E   T O   T H E   A N S Y S (R)  P R O G R A M     |
 |                                                                  |
 *------------------------------------------------------------------*




 ***************************************************************
 *            ANSYS 2020 R1          LEGAL NOTICES             *
 ***************************************************************
 *                                                             *
 * Copyright 1971-2020 ANSYS, Inc.  All rights reserved.       *
 * Unauthorized use, distribution or duplication is            *
 * prohibited.                                                 *
 *                                                             *
 * Ansys is a registered trademark of ANSYS, Inc. or its       *
 * subsidiaries in the United States or other countries.       *
 * See the ANSYS, Inc. online documentation or the ANSYS, Inc. *
 * documentation CD or online help for the complete Legal      *
 * Notice.                                                     *
 *                                                             *
 ***************************************************************
 *                                                             *
 * THIS ANSYS SOFTWARE PRODUCT AND PROGRAM DOCUMENTATION       *
 * INCLUDE TRADE SECRETS AND CONFIDENTIAL AND PROPRIETARY      *
 * PRODUCTS OF ANSYS, INC., ITS SUBSIDIARIES, OR LICENSORS.    *
 * The software products and documentation are furnished by    *
 * ANSYS, Inc. or its subsidiaries under a software license    *
 * agreement that contains provisions concerning               *
 * non-disclosure, copying, length and nature of use,          *
 * compliance with exporting laws, warranties, disclaimers,    *
 * limitations of liability, and remedies, and other           *
 * provisions.  The software products and documentation may be *
 * used, disclosed, transferred, or copied only in accordance  *
 * with the terms and conditions of that software license      *
 * agreement.                                                  *
 *                                                             *
 * ANSYS, Inc. is a UL registered                              *
 * ISO 9001:2015 company.                                      *
 *                                                             *
 ***************************************************************
 *                                                             *
 * This product is subject to U.S. laws governing export and   *
 * re-export.                                                  *
 *                                                             *
 * For U.S. Government users, except as specifically granted   *
 * by the ANSYS, Inc. software license agreement, the use,     *
 * duplication, or disclosure by the United States Government  *
 * is subject to restrictions stated in the ANSYS, Inc.        *
 * software license agreement and FAR 12.212 (for non-DOD      *
 * licenses).                                                  *
 *                                                             *
 ***************************************************************

 2020 R1 
     
 Point Releases and Patches installed:   
     
 ANSYS, Inc. Products 2020 R1
 SpaceClaim 2020 R1  
 AIM 2020 R1 
 Live (includes SpaceClaim) 2020 R1  
 Autodyn 2020 R1 
 LS-DYNA 2020 R1 
 CFD-Post only 2020 R1   
 CFX (includes CFD-Post) 2020 R1 
 Chemkin 2020 R1 
 EnSight 2020 R1 
 FENSAP-ICE 2020 R1  
 Fluent (includes CFD-Post) 2020 R1  
 Forte 2020 R1   
 Polyflow (includes CFD-Post) 2020 R1
 TurboGrid 2020 R1   
 ICEM CFD 2020 R1
 Aqwa 2020 R1
 Customization Files for User Programmable Features 2020 R1  
 Mechanical Products 2020 R1 
 Additive 2020 R1
 ANSYS Sherlock 2020 R1  
 Icepak (includes CFD-Post) 2020 R1  
 Remote Solve Manager Standalone Services 2020 R1
 Viewer 2020 R1  
 ACIS Geometry Interface 2020 R1 
 AutoCAD Geometry Interface 2020 R1  
 Catia, Version 4 Geometry Interface 2020 R1 
 Catia, Version 5 Geometry Interface 2020 R1 
 Catia, Version 6 Geometry Interface 2020 R1 
 Creo Elements/Direct Modeling Geometry Interface 2020 R1
 Creo Parametric Geometry Interface 2020 R1  
 Inventor Geometry Interface 2020 R1 
 JTOpen Geometry Interface 2020 R1   
 NX Geometry Interface 2020 R1   
 Parasolid Geometry Interface  2020 R1   
 Solid Edge Geometry Interface 2020 R1   
 SOLIDWORKS Geometry Interface 2020 R1   
 ANSYS, Inc. License Manager 2020 R1 


          *****  ANSYS COMMAND LINE ARGUMENTS  *****
  BATCH MODE REQUESTED (-b)    = NOLIST
  INPUT FILE COPY MODE (-c)    = COPY
  DISTRIBUTED MEMORY PARALLEL REQUESTED
       2 PARALLEL PROCESSES REQUESTED WITH SINGLE THREAD PER PROCESS
    TOTAL OF     2 CORES REQUESTED
  DESIGNXPLORER REQUESTED
  INPUT FILE NAME              = C:\Users\alexj\Documents\Monash University\Year 6\Semester 2\MEC4407 - Design 3\team_18\team challenge 2\100kN Alex\_ProjectScratch\Scr8E06\dummy.dat
  OUTPUT FILE NAME             = C:\Users\alexj\Documents\Monash University\Year 6\Semester 2\MEC4407 - Design 3\team_18\team challenge 2\100kN Alex\_ProjectScratch\Scr8E06\solve.out
  START-UP FILE MODE           = NOREAD
  STOP FILE MODE               = NOREAD

 RELEASE= 2020 R1              BUILD= 20.1      UP20191203   VERSION=WINDOWS x64 
 CURRENT JOBNAME=file0  12:53:11  OCT 04, 2020 CP=      0.344


 PARAMETER _DS_PROGRESS =     999.0000000    

 /INPUT FILE= ds.dat  LINE=       0



 *** NOTE ***                            CP =       0.484   TIME= 12:53:11
 The /CONFIG,NOELDB command is not valid in a Distributed ANSYS          
 solution.  Command is ignored.                                          

 *GET  _WALLSTRT  FROM  ACTI  ITEM=TIME WALL  VALUE=  12.8863889    


 USE DOUBLE PRECISION RESULTS FILE FORMAT

 TITLE= 
 100kN analysis--Static Structural (B5)                                        


 SET PARAMETER DIMENSIONS ON  _WB_PROJECTSCRATCH_DIR
  TYPE=STRI  DIMENSIONS=      248        1        1

 PARAMETER _WB_PROJECTSCRATCH_DIR(1) = C:\Users\alexj\Documents\Monash University\Year 6\Semester 2\MEC4407 - Design 3\team_18\team challenge 2\100kN Alex\_ProjectScratch\Scr8E06\

 SET PARAMETER DIMENSIONS ON  _WB_SOLVERFILES_DIR
  TYPE=STRI  DIMENSIONS=      248        1        1

 PARAMETER _WB_SOLVERFILES_DIR(1) = C:\Users\alexj\Documents\Monash University\Year 6\Semester 2\MEC4407 - Design 3\team_18\team challenge 2\100kN Alex\100kN analysis_files\dp0\SYS\MECH\

 SET PARAMETER DIMENSIONS ON  _WB_USERFILES_DIR
  TYPE=STRI  DIMENSIONS=      248        1        1

 PARAMETER _WB_USERFILES_DIR(1) = C:\Users\alexj\Documents\Monash University\Year 6\Semester 2\MEC4407 - Design 3\team_18\team challenge 2\100kN Alex\100kN analysis_files\user_files\
 --- Data in consistent NMM units. See Solving Units in the help system for more

 MPA UNITS SPECIFIED FOR INTERNAL    
  LENGTH      = MILLIMETERS (mm)
  MASS        = TONNE (Mg)
  TIME        = SECONDS (sec)
  TEMPERATURE = CELSIUS (C)
  TOFFSET     = 273.0
  FORCE       = NEWTON (N)
  HEAT        = MILLIJOULES (mJ)

 INPUT  UNITS ARE ALSO SET TO MPA 

 *** ANSYS - ENGINEERING ANALYSIS SYSTEM  RELEASE 2020 R1          20.1     ***
 DISTRIBUTED ANSYS Academic Teaching Advanced                  

 00608699  VERSION=WINDOWS x64   12:53:11  OCT 04, 2020 CP=      0.484

 100kN analysis--Static Structural (B5)                                        



          ***** ANSYS ANALYSIS DEFINITION (PREP7) *****
 *********** Nodes for the whole assembly ***********
 *********** Elements for Body 1 "4-2" ***********
 *********** Elements for Body 2 "1-1" ***********
 *********** Elements for Body 3 "2-2" ***********
 *********** Elements for Body 4 "3-2" ***********
 *********** Send User Defined Coordinate System(s) ***********
 *********** Set Reference Temperature ***********
 *********** Send Materials ***********
 *********** Create Contact "Contact Region" ***********
             Real Constant Set For Above Contact Is 6 & 5
 *********** Create Contact "Contact Region 2" ***********
             Real Constant Set For Above Contact Is 8 & 7
 *********** Create Contact "Contact Region 3" ***********
             Real Constant Set For Above Contact Is 10 & 9
 *********** Fixed Supports ***********
 *********** Define Force Using Surface Effect Elements ***********


 ***** ROUTINE COMPLETED *****  CP =         0.953


 --- Number of total nodes = 46393
 --- Number of contact elements = 1298
 --- Number of spring elements = 0
 --- Number of bearing elements = 0
 --- Number of solid elements = 21609
 --- Number of condensed parts = 0
 --- Number of total elements = 22907

 *GET  _WALLBSOL  FROM  ACTI  ITEM=TIME WALL  VALUE=  12.8863889    
 ****************************************************************************
 *************************    SOLUTION       ********************************
 ****************************************************************************

 *****  ANSYS SOLUTION ROUTINE  *****


 PERFORM A STATIC ANALYSIS
  THIS WILL BE A NEW ANALYSIS

 PARAMETER _THICKRATIO =     0.000000000    

 USE SPARSE MATRIX DIRECT SOLVER

 CONTACT INFORMATION PRINTOUT LEVEL       1

 NLDIAG: Nonlinear diagnostics CONT option is set to ON. 
         Writing frequency : each ITERATION.

 DO NOT SAVE ANY RESTART FILES AT ALL
 ****************************************************
 ******************* SOLVE FOR LS 1 OF 1 ****************

 SELECT       FOR ITEM=TYPE COMPONENT=    
  IN RANGE        11 TO         11 STEP          1

         26  ELEMENTS (OF      22907  DEFINED) SELECTED BY  ESEL  COMMAND.

 SELECT      ALL NODES HAVING ANY ELEMENT IN ELEMENT SET.

         81 NODES (OF      46393  DEFINED) SELECTED FROM
       26 SELECTED ELEMENTS BY NSLE COMMAND.

 SPECIFIED SURFACE LOAD PRES FOR ALL SELECTED ELEMENTS  LKEY =  1   KVAL = 1
     VALUES =     0.0000         0.0000         0.0000         0.0000    

 SPECIFIED SURFACE LOAD PRES FOR ALL SELECTED ELEMENTS  LKEY =  2   KVAL = 1
     VALUES =    -45.662        -45.662        -45.662        -45.662    

 SPECIFIED SURFACE LOAD PRES FOR ALL SELECTED ELEMENTS  LKEY =  3   KVAL = 1
     VALUES =     0.0000         0.0000         0.0000         0.0000    

 ALL SELECT   FOR ITEM=NODE COMPONENT=    
  IN RANGE         1 TO      46393 STEP          1

      46393  NODES (OF      46393  DEFINED) SELECTED BY NSEL  COMMAND.

 ALL SELECT   FOR ITEM=ELEM COMPONENT=    
  IN RANGE         1 TO      39407 STEP          1

      22907  ELEMENTS (OF      22907  DEFINED) SELECTED BY  ESEL  COMMAND.

 PRINTOUT RESUMED BY /GOP

 USE       1 SUBSTEPS INITIALLY THIS LOAD STEP FOR ALL  DEGREES OF FREEDOM
 FOR AUTOMATIC TIME STEPPING:
   USE      1 SUBSTEPS AS A MAXIMUM
   USE      1 SUBSTEPS AS A MINIMUM

 TIME=  1.0000    

 ERASE THE CURRENT DATABASE OUTPUT CONTROL TABLE.


 WRITE ALL  ITEMS TO THE DATABASE WITH A FREQUENCY OF NONE
   FOR ALL APPLICABLE ENTITIES

 WRITE NSOL ITEMS TO THE DATABASE WITH A FREQUENCY OF ALL 
   FOR ALL APPLICABLE ENTITIES

 WRITE RSOL ITEMS TO THE DATABASE WITH A FREQUENCY OF ALL 
   FOR ALL APPLICABLE ENTITIES

 WRITE EANG ITEMS TO THE DATABASE WITH A FREQUENCY OF ALL 
   FOR ALL APPLICABLE ENTITIES

 WRITE ETMP ITEMS TO THE DATABASE WITH A FREQUENCY OF ALL 
   FOR ALL APPLICABLE ENTITIES

 WRITE VENG ITEMS TO THE DATABASE WITH A FREQUENCY OF ALL 
   FOR ALL APPLICABLE ENTITIES

 WRITE NLOA ITEMS TO THE DATABASE WITH A FREQUENCY OF ALL 
   FOR ALL APPLICABLE ENTITIES

 WRITE STRS ITEMS TO THE DATABASE WITH A FREQUENCY OF ALL 
   FOR ALL APPLICABLE ENTITIES

 WRITE SRFS ITEMS TO THE DATABASE WITH A FREQUENCY OF ALL 
   FOR ALL APPLICABLE ENTITIES

 WRITE BKST ITEMS TO THE DATABASE WITH A FREQUENCY OF ALL 
   FOR ALL APPLICABLE ENTITIES

 WRITE EPEL ITEMS TO THE DATABASE WITH A FREQUENCY OF ALL 
   FOR ALL APPLICABLE ENTITIES

 WRITE EPPL ITEMS TO THE DATABASE WITH A FREQUENCY OF ALL 
   FOR ALL APPLICABLE ENTITIES

 WRITE CONT ITEMS TO THE DATABASE WITH A FREQUENCY OF ALL 
   FOR ALL APPLICABLE ENTITIES

 ALL CURRENT ANSYS DATA WRITTEN TO FILE NAME= file_Static42.db
  FOR POSSIBLE RESUME FROM THIS POINT

 *GET  ANSINTER_  FROM  ACTI  ITEM=INT        VALUE=  0.00000000    

 *IF  ANSINTER_                         ( =   0.00000     )  NE  
      0                                 ( =   0.00000     )  THEN    

 *ENDIF

 *** NOTE ***                            CP =       1.438   TIME= 12:53:11
 The automatic domain decomposition logic has selected the MESH domain   
 decomposition method with 2 processes per solution.                     

 *****  ANSYS SOLVE    COMMAND  *****

 *** WARNING ***                         CP =       1.438   TIME= 12:53:11
 Element shape checking is currently inactive.  Issue SHPP,ON or         
 SHPP,WARN to reactivate, if desired.                                    

 *** NOTE ***                            CP =       1.562   TIME= 12:53:11
 The model data was checked and warning messages were found.             
  Please review output or errors file ( C:\Users\alexj\Documents\Monash  
 University\Year 6\Semester 2\MEC4407 - Design 3\team_18\team challenge  
 2\100kN Alex\_ProjectScratch\Scr8E06\file0.err ) for these warning      
 messages.                                                               

 *** SELECTION OF ELEMENT TECHNOLOGIES FOR APPLICABLE ELEMENTS ***
      --- GIVE SUGGESTIONS AND RESET THE KEY OPTIONS ---

 ELEMENT TYPE    1 IS SOLID187. IT IS NOT ASSOCIATED WITH FULLY INCOMPRESSIBLE
 HYPERELASTIC MATERIALS. NO SUGGESTION IS AVAILABLE AND NO RESETTING IS NEEDED.

 ELEMENT TYPE    2 IS SOLID187. IT IS NOT ASSOCIATED WITH FULLY INCOMPRESSIBLE
 HYPERELASTIC MATERIALS. NO SUGGESTION IS AVAILABLE AND NO RESETTING IS NEEDED.

 ELEMENT TYPE    3 IS SOLID187. IT IS NOT ASSOCIATED WITH FULLY INCOMPRESSIBLE
 HYPERELASTIC MATERIALS. NO SUGGESTION IS AVAILABLE AND NO RESETTING IS NEEDED.

 ELEMENT TYPE    4 IS SOLID187. IT IS NOT ASSOCIATED WITH FULLY INCOMPRESSIBLE
 HYPERELASTIC MATERIALS. NO SUGGESTION IS AVAILABLE AND NO RESETTING IS NEEDED.



 *** ANSYS - ENGINEERING ANALYSIS SYSTEM  RELEASE 2020 R1          20.1     ***
 DISTRIBUTED ANSYS Academic Teaching Advanced                  

 00608699  VERSION=WINDOWS x64   12:53:11  OCT 04, 2020 CP=      1.562

 100kN analysis--Static Structural (B5)                                        



                       S O L U T I O N   O P T I O N S

   PROBLEM DIMENSIONALITY. . . . . . . . . . . . .3-D                  
   DEGREES OF FREEDOM. . . . . . UX   UY   UZ  
   ANALYSIS TYPE . . . . . . . . . . . . . . . . .STATIC (STEADY-STATE)
   OFFSET TEMPERATURE FROM ABSOLUTE ZERO . . . . .  273.15    
   EQUATION SOLVER OPTION. . . . . . . . . . . . .SPARSE             
   GLOBALLY ASSEMBLED MATRIX . . . . . . . . . . .SYMMETRIC  

 *** WARNING ***                         CP =       1.625   TIME= 12:53:12
 Material number 11 (used by element 39382) should normally have at      
 least one MP or one TB type command associated with it.  Output of      
 energy by material may not be available.                                

 *** NOTE ***                            CP =       1.625   TIME= 12:53:12
 The step data was checked and warning messages were found.              
  Please review output or errors file ( C:\Users\alexj\Documents\Monash  
 University\Year 6\Semester 2\MEC4407 - Design 3\team_18\team challenge  
 2\100kN Alex\_ProjectScratch\Scr8E06\file0.err ) for these warning      
 messages.                                                               

 *** NOTE ***                            CP =       1.625   TIME= 12:53:12
 The conditions for direct assembly have been met.  No .emat or .erot    
 files will be produced.                                                 

 *** NOTE ***                            CP =       1.844   TIME= 12:53:12
 Symmetric Deformable- deformable contact pair identified by real        
 constant set 5 and contact element type 5 has been set up.  The         
 companion pair has real constant set ID 6.  Both pairs should have the  
 same behavior.                                                          
 *WARNING*: ANSYS has found the contact pairs have similar mesh patterns 
 which can cause overconstraint.  ANSYS will deactivate the current      
 pair and keep its companion pair.                                       
 Linear contact is defined
 Contact algorithm: Augmented Lagrange method
 Contact detection at: Gauss integration point
 Contact stiffness factor FKN                  10.000    
 The resulting initial contact stiffness      0.14877E+07
 Default penetration tolerance factor FTOLN   0.10000    
 The resulting penetration tolerance           2.6886    
 Default opening contact stiffness OPSF will be used.
 Default tangent stiffness factor FKT          1.0000    
 Use constant contact stiffness
 Default Max. friction stress TAUMAX          0.10000E+21
 Average contact surface length                16.593    
 Average contact pair depth                    26.886    
 Default pinball region factor PINB           0.25000    
 The resulting pinball region                  6.7216    
 Initial penetration/gap is excluded.
 Bonded contact (always) is defined.

 *** NOTE ***                            CP =       1.844   TIME= 12:53:12
 Max.  Initial penetration 4.547473509E-13 was detected between contact  
 element 38232 and target element 38369.                                 
 ****************************************
  

 *** NOTE ***                            CP =       1.844   TIME= 12:53:12
 Symmetric Deformable- deformable contact pair identified by real        
 constant set 6 and contact element type 5 has been set up.  The         
 companion pair has real constant set ID 5.  Both pairs should have the  
 same behavior.                                                          
 ANSYS will keep the current pair and deactivate its companion pair,     
 resulting in asymmetric contact.                                        
 Linear contact is defined
 Contact algorithm: Augmented Lagrange method
 Contact detection at: Gauss integration point
 Contact stiffness factor FKN                  10.000    
 The resulting initial contact stiffness      0.14877E+07
 Default penetration tolerance factor FTOLN   0.10000    
 The resulting penetration tolerance           2.5401    
 Default opening contact stiffness OPSF will be used.
 Default tangent stiffness factor FKT          1.0000    
 Use constant contact stiffness
 Default Max. friction stress TAUMAX          0.10000E+21
 Average contact surface length                16.623    
 Average contact pair depth                    25.401    
 Default pinball region factor PINB           0.25000    
 The resulting pinball region                  6.3502    
 Initial penetration/gap is excluded.
 Bonded contact (always) is defined.

 *** NOTE ***                            CP =       1.844   TIME= 12:53:12
 Max.  Initial penetration 1.364242053E-12 was detected between contact  
 element 38310 and target element 38132.                                 
 ****************************************
  

 *** NOTE ***                            CP =       1.844   TIME= 12:53:12
 Symmetric Deformable- deformable contact pair identified by real        
 constant set 7 and contact element type 7 has been set up.  The         
 companion pair has real constant set ID 8.  Both pairs should have the  
 same behavior.                                                          
 *WARNING*: ANSYS has found the contact pairs have similar mesh          
 patterns.  ANSYS will keep the current pair and deactivate its          
 companion pair.                                                         
 Linear contact is defined
 Contact algorithm: Augmented Lagrange method
 Contact detection at: Gauss integration point
 Contact stiffness factor FKN                  10.000    
 The resulting initial contact stiffness      0.15197E+07
 Default penetration tolerance factor FTOLN   0.10000    
 The resulting penetration tolerance           2.5765    
 Default opening contact stiffness OPSF will be used.
 Default tangent stiffness factor FKT          1.0000    
 Use constant contact stiffness
 Default Max. friction stress TAUMAX          0.10000E+21
 Average contact surface length                17.256    
 Average contact pair depth                    25.765    
 Default pinball region factor PINB           0.25000    
 The resulting pinball region                  6.4414    
 Initial penetration/gap is excluded.
 Bonded contact (always) is defined.

 *** NOTE ***                            CP =       1.844   TIME= 12:53:12
 Max.  Initial penetration 1.421085472E-13 was detected between contact  
 element 38553 and target element 38848.                                 
 ****************************************
  

 *** NOTE ***                            CP =       1.844   TIME= 12:53:12
 Symmetric Deformable- deformable contact pair identified by real        
 constant set 8 and contact element type 7 has been set up.  The         
 companion pair has real constant set ID 7.  Both pairs should have the  
 same behavior.                                                          
 ANSYS will deactivate the current pair and keep its companion pair,     
 resulting in asymmetric contact.                                        
 Linear contact is defined
 Contact algorithm: Augmented Lagrange method
 Contact detection at: Gauss integration point
 Contact stiffness factor FKN                  10.000    
 The resulting initial contact stiffness      0.15197E+07
 Default penetration tolerance factor FTOLN   0.10000    
 The resulting penetration tolerance           2.6321    
 Default opening contact stiffness OPSF will be used.
 Default tangent stiffness factor FKT          1.0000    
 Use constant contact stiffness
 Default Max. friction stress TAUMAX          0.10000E+21
 Average contact surface length                17.263    
 Average contact pair depth                    26.321    
 Default pinball region factor PINB           0.25000    
 The resulting pinball region                  6.5803    
 Initial penetration/gap is excluded.
 Bonded contact (always) is defined.

 *** NOTE ***                            CP =       1.844   TIME= 12:53:12
 Max.  Initial penetration 5.684341886E-14 was detected between contact  
 element 38705 and target element 38436.                                 
 ****************************************
  

 *** NOTE ***                            CP =       1.844   TIME= 12:53:12
 Symmetric Deformable- deformable contact pair identified by real        
 constant set 9 and contact element type 9 has been set up.  The         
 companion pair has real constant set ID 10.  Both pairs should have     
 the same behavior.                                                      
 *WARNING*: ANSYS has found the contact pairs have similar mesh patterns 
 which can cause overconstraint.  ANSYS will deactivate the current      
 pair and keep its companion pair.                                       
 Linear contact is defined
 Contact algorithm: Augmented Lagrange method
 Contact detection at: Gauss integration point
 Contact stiffness factor FKN                  10.000    
 The resulting initial contact stiffness      0.14773E+07
 Default penetration tolerance factor FTOLN   0.10000    
 The resulting penetration tolerance           2.7077    
 Default opening contact stiffness OPSF will be used.
 Default tangent stiffness factor FKT          1.0000    
 Use constant contact stiffness
 Default Max. friction stress TAUMAX          0.10000E+21
 Average contact surface length                16.689    
 Average contact pair depth                    27.077    
 Default pinball region factor PINB           0.25000    
 The resulting pinball region                  6.7693    
 Initial penetration/gap is excluded.
 Bonded contact (always) is defined.

 *** NOTE ***                            CP =       1.844   TIME= 12:53:12
 Max.  Initial penetration 6.821210263E-13 was detected between contact  
 element 39079 and target element 39356.                                 
 ****************************************
  

 *** NOTE ***                            CP =       1.844   TIME= 12:53:12
 Symmetric Deformable- deformable contact pair identified by real        
 constant set 10 and contact element type 9 has been set up.  The        
 companion pair has real constant set ID 9.  Both pairs should have the  
 same behavior.                                                          
 ANSYS will keep the current pair and deactivate its companion pair,     
 resulting in asymmetric contact.                                        
 Linear contact is defined
 Contact algorithm: Augmented Lagrange method
 Contact detection at: Gauss integration point
 Contact stiffness factor FKN                  10.000    
 The resulting initial contact stiffness      0.14773E+07
 Default penetration tolerance factor FTOLN   0.10000    
 The resulting penetration tolerance           2.5513    
 Default opening contact stiffness OPSF will be used.
 Default tangent stiffness factor FKT          1.0000    
 Use constant contact stiffness
 Default Max. friction stress TAUMAX          0.10000E+21
 Average contact surface length                16.669    
 Average contact pair depth                    25.513    
 Default pinball region factor PINB           0.25000    
 The resulting pinball region                  6.3783    
 Initial penetration/gap is excluded.
 Bonded contact (always) is defined.

 *** NOTE ***                            CP =       1.844   TIME= 12:53:12
 Max.  Initial penetration 4.547473509E-13 was detected between contact  
 element 39178 and target element 38988.                                 
 ****************************************
  
  
  

  
  
     D I S T R I B U T E D   D O M A I N   D E C O M P O S E R
  
  ...Number of elements: 22907
  ...Number of nodes:    46393
  ...Decompose to 2 CPU domains
  ...Element load balance ratio =     1.011


                      L O A D   S T E P   O P T I O N S

   LOAD STEP NUMBER. . . . . . . . . . . . . . . .     1
   TIME AT END OF THE LOAD STEP. . . . . . . . . .  1.0000    
   NUMBER OF SUBSTEPS. . . . . . . . . . . . . . .     1
   STEP CHANGE BOUNDARY CONDITIONS . . . . . . . .    NO
   PRINT OUTPUT CONTROLS . . . . . . . . . . . . .NO PRINTOUT
   DATABASE OUTPUT CONTROLS
      ITEM     FREQUENCY   COMPONENT
       ALL       NONE               
      NSOL        ALL               
      RSOL        ALL               
      EANG        ALL               
      ETMP        ALL               
      VENG        ALL               
      NLOA        ALL               
      STRS        ALL               
      SRFS        ALL               
      BKST        ALL               
      EPEL        ALL               
      EPPL        ALL               
      CONT        ALL               


 SOLUTION MONITORING INFO IS WRITTEN TO FILE= file.mntr                                                                                                                                                                                                                                                           

 *** NOTE ***                            CP =       2.203   TIME= 12:53:12
 Symmetric Deformable- deformable contact pair identified by real        
 constant set 9 and contact element type 9 has been set up.  The         
 companion pair has real constant set ID 10.  Both pairs should have     
 the same behavior.                                                      
 ANSYS will deactivate the current pair and keep its companion pair,     
 resulting in asymmetric contact.                                        
 Linear contact is defined
 Contact algorithm: Augmented Lagrange method
 Contact detection at: Gauss integration point
 Contact stiffness factor FKN                  10.000    
 The resulting initial contact stiffness      0.14773E+07
 Default penetration tolerance factor FTOLN   0.10000    
 The resulting penetration tolerance           2.7077    
 Default opening contact stiffness OPSF will be used.
 Default tangent stiffness factor FKT          1.0000    
 Use constant contact stiffness
 Default Max. friction stress TAUMAX          0.10000E+21
 Average contact surface length                16.689    
 Average contact pair depth                    27.077    
 Default pinball region factor PINB           0.25000    
 The resulting pinball region                  6.7693    
 Initial penetration/gap is excluded.
 Bonded contact (always) is defined.

 *** NOTE ***                            CP =       2.203   TIME= 12:53:12
 Max.  Initial penetration 6.821210263E-13 was detected between contact  
 element 39079 and target element 39356.                                 
 ****************************************
  

 *** NOTE ***                            CP =       2.203   TIME= 12:53:12
 Symmetric Deformable- deformable contact pair identified by real        
 constant set 10 and contact element type 9 has been set up.  The        
 companion pair has real constant set ID 9.  Both pairs should have the  
 same behavior.                                                          
 ANSYS will keep the current pair and deactivate its companion pair,     
 resulting in asymmetric contact.                                        
 Linear contact is defined
 Contact algorithm: Augmented Lagrange method
 Contact detection at: Gauss integration point
 Contact stiffness factor FKN                  10.000    
 The resulting initial contact stiffness      0.14773E+07
 Default penetration tolerance factor FTOLN   0.10000    
 The resulting penetration tolerance           2.5513    
 Default opening contact stiffness OPSF will be used.
 Default tangent stiffness factor FKT          1.0000    
 Use constant contact stiffness
 Default Max. friction stress TAUMAX          0.10000E+21
 Average contact surface length                16.669    
 Average contact pair depth                    25.513    
 Default pinball region factor PINB           0.25000    
 The resulting pinball region                  6.3783    
 Initial penetration/gap is excluded.
 Bonded contact (always) is defined.

 *** NOTE ***                            CP =       2.203   TIME= 12:53:12
 Max.  Initial penetration 4.547473509E-13 was detected between contact  
 element 39178 and target element 38988.                                 
 ****************************************
  

  
 *************************************************
  SUMMARY FOR CONTACT PAIR IDENTIFIED BY REAL CONSTANT SET           9

 *** NOTE ***                            CP =       3.766   TIME= 12:53:14
 Contact pair is inactive.                                               
  
 *************************************************
  SUMMARY FOR CONTACT PAIR IDENTIFIED BY REAL CONSTANT SET          10
 Max.  Penetration of -2.273736754E-13 has been detected between contact 
 element 39222 and target element 38996.                                 
  
 Max.  Geometrical gap of 4.547473509E-13 has been detected between      
 contact element 39178 and target element 38988.                         
  
 Max.  Geometrical penetration of -4.547473509E-13 has been detected     
 between contact element 39178 and target element 38988.                 
 For total 110 contact elements, there are 110 elements are in contact.  
 There are 110 elements are in sticking.                                 
 Contacting area 10290.                                                  
 Max.  Pinball distance 6.37834094.                                      
 One of the contact searching regions contains at least 18 target        
 elements.                                                               
 Max.  Pressure/force -6.717769061E-07.                                  
 Max.  Normal stiffness 1477253.04.                                      
 Min.  Normal stiffness 1477253.04.                                      
 Max.  Tangential stiffness 1695777.2.                                   
 Min.  Tangential stiffness 1695777.2.                                   
 *************************************************


                         ***********  PRECISE MASS SUMMARY  ***********

   TOTAL RIGID BODY MASS MATRIX ABOUT ORIGIN
               Translational mass               |   Coupled translational/rotational mass
        0.26963        0.0000        0.0000     |     0.0000        282.80       -165.04    
         0.0000       0.26963        0.0000     |    -282.80        0.0000        215.38    
         0.0000        0.0000       0.26963     |     165.04       -215.38        0.0000    
     ------------------------------------------ | ------------------------------------------
                                                |         Rotational mass (inertia)
                                                |    0.42366E+06  -0.13183E+06  -0.22591E+06
                                                |   -0.13183E+06   0.77458E+06  -0.17310E+06
                                                |   -0.22591E+06  -0.17310E+06   0.60460E+06

   TOTAL MASS = 0.26963    
     The mass principal axes coincide with the global Cartesian axes

   CENTER OF MASS (X,Y,Z)=    798.81        612.09        1048.9    

   TOTAL INERTIA ABOUT CENTER OF MASS
         26025.      -0.36853E-04  -0.27746E-06
       -0.36853E-04   0.30591E+06  -0.18533E-05
       -0.27746E-06  -0.18533E-05   0.33153E+06
     The inertia principal axes coincide with the global Cartesian axes


  *** MASS SUMMARY BY ELEMENT TYPE ***

  TYPE      MASS
     1  0.342863E-01
     2  0.991737E-01
     3  0.782078E-01
     4  0.579607E-01

 Range of element maximum matrix coefficients in global coordinates
 Maximum = 41931501 at element 3019.                                     
 Minimum = 1719840.66 at element 7935.                                   

   *** ELEMENT MATRIX FORMULATION TIMES
     TYPE    NUMBER   ENAME      TOTAL CP  AVE CP

        1      3091  SOLID187      0.406   0.000131
        2      7474  SOLID187      0.844   0.000113
        3      6110  SOLID187      0.781   0.000128
        4      4934  SOLID187      0.609   0.000124
        5       156  CONTA174      0.016   0.000100
        6       156  TARGE170      0.000   0.000000
        7       260  CONTA174      0.016   0.000060
        8       260  TARGE170      0.016   0.000060
        9       220  CONTA174      0.031   0.000142
       10       220  TARGE170      0.016   0.000071
       11        26  SURF154       0.000   0.000000
 Time at end of element matrix formulation CP = 3.765625.                

 DISTRIBUTED SPARSE MATRIX DIRECT SOLVER.
  Number of equations =      137802,    Maximum wavefront =    180

  Local memory allocated for solver              =    232.427 MB
  Local memory required for in-core solution     =    223.402 MB
  Local memory required for out-of-core solution =    104.801 MB

  Total memory allocated for solver              =    452.683 MB
  Total memory required for in-core solution     =    435.185 MB
  Total memory required for out-of-core solution =    208.350 MB

 *** NOTE ***                            CP =       5.297   TIME= 12:53:15
 The Distributed Sparse Matrix Solver is currently running in the        
 in-core memory mode.  This memory mode uses the most amount of memory   
 in order to avoid using the hard drive as much as possible, which most  
 often results in the fastest solution time.  This mode is recommended   
 if enough physical memory is present to accommodate all of the solver   
 data.                                                                   
 curEqn=  52141  totEqn=  68514 Job CP sec=      6.359
      Factor Done=  50% Factor Wall sec=      0.549 rate=    5766.4 Mflops
 curEqn=  68514  totEqn=  68514 Job CP sec=      7.000
      Factor Done= 100% Factor Wall sec=      1.185 rate=    5337.1 Mflops
 Distributed sparse solver maximum pivot= 79910815.7 at node 5706 UZ.    
 Distributed sparse solver minimum pivot= 866.032001 at node 18209 UZ.   
 Distributed sparse solver minimum pivot in absolute value= 866.032001   
 at node 18209 UZ.                                                       

   *** ELEMENT RESULT CALCULATION TIMES
     TYPE    NUMBER   ENAME      TOTAL CP  AVE CP

        1      3091  SOLID187      0.297   0.000096
        2      7474  SOLID187      0.812   0.000109
        3      6110  SOLID187      0.562   0.000092
        4      4934  SOLID187      0.500   0.000101
        5       156  CONTA174      0.016   0.000100
        7       260  CONTA174      0.016   0.000060
        9       220  CONTA174      0.031   0.000142
       11        26  SURF154       0.000   0.000000

   *** NODAL LOAD CALCULATION TIMES
     TYPE    NUMBER   ENAME      TOTAL CP  AVE CP

        1      3091  SOLID187      0.016   0.000005
        2      7474  SOLID187      0.000   0.000000
        3      6110  SOLID187      0.062   0.000010
        4      4934  SOLID187      0.000   0.000000
        5       156  CONTA174      0.000   0.000000
        7       260  CONTA174      0.000   0.000000
        9       220  CONTA174      0.000   0.000000
       11        26  SURF154       0.000   0.000000
 *** LOAD STEP     1   SUBSTEP     1  COMPLETED.    CUM ITER =      1
 *** TIME =   1.00000         TIME INC =   1.00000      NEW TRIANG MATRIX


 *** ANSYS BINARY FILE STATISTICS
  BUFFER SIZE USED= 16384
        5.500 MB WRITTEN ON ELEMENT SAVED DATA FILE: file0.esav
       31.375 MB WRITTEN ON ASSEMBLED MATRIX FILE: file0.full
       13.188 MB WRITTEN ON RESULTS FILE: file0.rst
 *************** Write FE CONNECTORS *********

 WRITE OUT CONSTRAINT EQUATIONS TO FILE= file.ce                                                                                                                                                                                                                                                             
 ****************************************************
 *************** FINISHED SOLVE FOR LS 1 *************

 *GET  _WALLASOL  FROM  ACTI  ITEM=TIME WALL  VALUE=  12.8886111    

 PRINTOUT RESUMED BY /GOP

 FINISH SOLUTION PROCESSING


 ***** ROUTINE COMPLETED *****  CP =         9.047



 *** ANSYS - ENGINEERING ANALYSIS SYSTEM  RELEASE 2020 R1          20.1     ***
 DISTRIBUTED ANSYS Academic Teaching Advanced                  

 00608699  VERSION=WINDOWS x64   12:53:19  OCT 04, 2020 CP=      9.047

 100kN analysis--Static Structural (B5)                                        



          ***** ANSYS RESULTS INTERPRETATION (POST1) *****

 *** NOTE ***                            CP =       9.047   TIME= 12:53:19
 Reading results into the database (SET command) will update the current 
 displacement and force boundary conditions in the database with the     
 values from the results file for that load set.  Note that any          
 subsequent solutions will use these values unless action is taken to    
 either SAVE the current values or not overwrite them (/EXIT,NOSAVE).    

 Set Encoding of XML File to:ISO-8859-1

 Set Output of XML File to:
     PARM,     ,     ,     ,     ,     ,     ,     ,     ,     ,     ,     ,
         ,     ,     ,     ,     ,     ,     ,

 DATABASE WRITTEN ON FILE  parm.xml                                                                                                                                                                                                                                                            

 EXIT THE ANSYS POST1 DATABASE PROCESSOR


 ***** ROUTINE COMPLETED *****  CP =         9.078



 PRINTOUT RESUMED BY /GOP

 *GET  _WALLDONE  FROM  ACTI  ITEM=TIME WALL  VALUE=  12.8886111    

 PARAMETER _PREPTIME =     0.000000000    

 PARAMETER _SOLVTIME =     8.000000000    

 PARAMETER _POSTTIME =     0.000000000    

 PARAMETER _TOTALTIM =     8.000000000    

 *GET  _DLBRATIO  FROM  ACTI  ITEM=SOLU DLBR  VALUE=  1.01092505    

 *GET  _COMBTIME  FROM  ACTI  ITEM=SOLU COMB  VALUE= 0.198225200    
 --- Number of total nodes = 46393
 --- Number of total elements = 22907
 --- Element load balance ratio = 1.01092505
 --- Time to combine distributed files = 0.1982252

 EXIT ANSYS WITHOUT SAVING DATABASE


 NUMBER OF WARNING MESSAGES ENCOUNTERED=          2
 NUMBER OF ERROR   MESSAGES ENCOUNTERED=          0

+--------- D I S T R I B U T E D   A N S Y S   S T A T I S T I C S ------------+

Release: 2020 R1            Build: 20.1       Update: UP20191203   Platform: WINDOWS x64 
Date Run: 10/04/2020   Time: 12:53     Process ID: 33904
Operating System: Windows 10  (Build: 18362)

Processor Model: Intel(R) Core(TM) i7-8565U CPU @ 1.80GHz

Compiler: Intel(R) FORTRAN Compiler Version 19.0.0  (Build: 20190206)
          Intel(R) C/C++ Compiler Version 19.0.0  (Build: 20190206)
          Intel(R) Math Kernel Library Version 2019.0.3 Product Build 20190125

Number of machines requested            :    1
Total number of cores available         :    8
Number of physical cores available      :    4
Number of processes requested           :    2
Number of threads per process requested :    1
Total number of cores requested         :    2 (Distributed Memory Parallel)               
MPI Type: INTELMPI
MPI Version: Intel(R) MPI Library 2018 Update 3 for Windows* OS


GPU Acceleration: Not Requested

Job Name: file0
Input File: dummy.dat

  Core                Machine Name   Working Directory
 -----------------------------------------------------
     0             LAPTOP-7048P6HN   C:\Users\alexj\Documents\Monash University\Year 6\Semester 2\MEC4407 - Design 3\team_18\team challenge 2\100kN Alex\_ProjectScratch\Scr8E06
     1             LAPTOP-7048P6HN   C:\Users\alexj\Documents\Monash University\Year 6\Semester 2\MEC4407 - Design 3\team_18\team challenge 2\100kN Alex\_ProjectScratch\Scr8E06
 
Latency time from master to core     1 =    1.278 microseconds
 
Communication speed from master to core     1 =  3795.48 MB/sec

Total CPU time for main thread                    :        8.6 seconds
Total CPU time summed for all threads             :        9.3 seconds

Elapsed time spent obtaining a license            :        1.1 seconds
Elapsed time spent pre-processing model (/PREP7)  :        0.2 seconds
Elapsed time spent solution - preprocessing       :        0.7 seconds
Elapsed time spent computing solution             :        6.4 seconds
Elapsed time spent solution - postprocessing      :        0.2 seconds
Elapsed time spent post-processing model (/POST1) :        0.0 seconds
 
Equation solver used                              :            Sparse (symmetric)
Equation solver computational rate                :        9.7 Gflops
Equation solver effective I/O rate                :        7.2 GB/sec

Maximum total memory used                         :      611.0 MB
Maximum total memory allocated                    :     3136.0 MB
Total physical memory available                   :         16 GB

Total amount of I/O written to disk               :        0.1 GB
Total amount of I/O read from disk                :        0.0 GB

+------ E N D   D I S T R I B U T E D   A N S Y S   S T A T I S T I C S -------+


 *---------------------------------------------------------------------------*
 |                                                                           |
 |                       DISTRIBUTED ANSYS RUN COMPLETED                     |
 |                                                                           |
 |---------------------------------------------------------------------------|
 |                                                                           |
 | Ansys 2020 R1               Build 20.1         UP20191203     WINDOWS x64 |
 |                                                                           |
 |---------------------------------------------------------------------------|
 |                                                                           |
 | Database Requested(-db)  1024 MB    Scratch Memory Requested      1024 MB |
 | Maximum Database Used      29 MB    Maximum Scratch Memory Used    297 MB |
 |                                                                           |
 |---------------------------------------------------------------------------|
 |                                                                           |
 |        CP Time      (sec) =          9.281       Time  =  12:53:20        |
 |        Elapsed Time (sec) =         11.000       Date  =  10/04/2020      |
 |                                                                           |
 *---------------------------------------------------------------------------*
