
 ANSYS Academic Research                           


 *------------------------------------------------------------------*
 |                                                                  |
 |   W E L C O M E   T O   T H E   A N S Y S (R)  P R O G R A M     |
 |                                                                  |
 *------------------------------------------------------------------*




 ***************************************************************
 *            ANSYS 2020 R1          LEGAL NOTICES             *
 ***************************************************************
 *                                                             *
 * Copyright 1971-2020 ANSYS, Inc.  All rights reserved.       *
 * Unauthorized use, distribution or duplication is            *
 * prohibited.                                                 *
 *                                                             *
 * Ansys is a registered trademark of ANSYS, Inc. or its       *
 * subsidiaries in the United States or other countries.       *
 * See the ANSYS, Inc. online documentation or the ANSYS, Inc. *
 * documentation CD or online help for the complete Legal      *
 * Notice.                                                     *
 *                                                             *
 ***************************************************************
 *                                                             *
 * THIS ANSYS SOFTWARE PRODUCT AND PROGRAM DOCUMENTATION       *
 * INCLUDE TRADE SECRETS AND CONFIDENTIAL AND PROPRIETARY      *
 * PRODUCTS OF ANSYS, INC., ITS SUBSIDIARIES, OR LICENSORS.    *
 * The software products and documentation are furnished by    *
 * ANSYS, Inc. or its subsidiaries under a software license    *
 * agreement that contains provisions concerning               *
 * non-disclosure, copying, length and nature of use,          *
 * compliance with exporting laws, warranties, disclaimers,    *
 * limitations of liability, and remedies, and other           *
 * provisions.  The software products and documentation may be *
 * used, disclosed, transferred, or copied only in accordance  *
 * with the terms and conditions of that software license      *
 * agreement.                                                  *
 *                                                             *
 * ANSYS, Inc. is a UL registered                              *
 * ISO 9001:2015 company.                                      *
 *                                                             *
 ***************************************************************
 *                                                             *
 * This product is subject to U.S. laws governing export and   *
 * re-export.                                                  *
 *                                                             *
 * For U.S. Government users, except as specifically granted   *
 * by the ANSYS, Inc. software license agreement, the use,     *
 * duplication, or disclosure by the United States Government  *
 * is subject to restrictions stated in the ANSYS, Inc.        *
 * software license agreement and FAR 12.212 (for non-DOD      *
 * licenses).                                                  *
 *                                                             *
 ***************************************************************

 2020 R1 
     
 Point Releases and Patches installed:   
     
 ANSYS, Inc. Products 2020 R1
 SpaceClaim 2020 R1  
 AIM 2020 R1 
 Live (includes SpaceClaim) 2020 R1  
 Autodyn 2020 R1 
 LS-DYNA 2020 R1 
 CFD-Post only 2020 R1   
 CFX (includes CFD-Post) 2020 R1 
 Chemkin 2020 R1 
 EnSight 2020 R1 
 FENSAP-ICE 2020 R1  
 Fluent (includes CFD-Post) 2020 R1  
 Forte 2020 R1   
 Polyflow (includes CFD-Post) 2020 R1
 TurboGrid 2020 R1   
 ICEM CFD 2020 R1
 Aqwa 2020 R1
 Customization Files for User Programmable Features 2020 R1  
 Mechanical Products 2020 R1 
 Additive 2020 R1
 ANSYS Sherlock 2020 R1  
 Icepak (includes CFD-Post) 2020 R1  
 Remote Solve Manager Standalone Services 2020 R1
 Viewer 2020 R1  
 ACIS Geometry Interface 2020 R1 
 AutoCAD Geometry Interface 2020 R1  
 Catia, Version 4 Geometry Interface 2020 R1 
 Catia, Version 5 Geometry Interface 2020 R1 
 Catia, Version 6 Geometry Interface 2020 R1 
 Creo Elements/Direct Modeling Geometry Interface 2020 R1
 Creo Parametric Geometry Interface 2020 R1  
 Inventor Geometry Interface 2020 R1 
 JTOpen Geometry Interface 2020 R1   
 NX Geometry Interface 2020 R1   
 Parasolid Geometry Interface  2020 R1   
 Solid Edge Geometry Interface 2020 R1   
 SOLIDWORKS Geometry Interface 2020 R1   
 ANSYS, Inc. License Manager 2020 R1 


          *****  ANSYS COMMAND LINE ARGUMENTS  *****
  BATCH MODE REQUESTED (-b)    = NOLIST
  INPUT FILE COPY MODE (-c)    = COPY
  SHARED MEMORY PARALLEL REQUESTED
    SINGLE PROCESS WITH SINGLE THREAD REQUESTED
    TOTAL OF     1 CORES REQUESTED
  DESIGNXPLORER REQUESTED
  INPUT FILE NAME              = C:\Users\mende\Documents\repos\team_18\team challenge 2\Live run\ansys\_ProjectScratch\ScrA1F7\dummy.dat
  OUTPUT FILE NAME             = C:\Users\mende\Documents\repos\team_18\team challenge 2\Live run\ansys\_ProjectScratch\ScrA1F7\solve.out
  START-UP FILE MODE           = NOREAD
  STOP FILE MODE               = NOREAD

 RELEASE= 2020 R1              BUILD= 20.1      UP20191203   VERSION=WINDOWS x64 
 CURRENT JOBNAME=file  00:15:01  OCT 07, 2020 CP=      0.203


 PARAMETER _DS_PROGRESS =     999.0000000    

 /INPUT FILE= ds.dat  LINE=       0



 DO NOT WRITE ELEMENT RESULTS INTO DATABASE

 *GET  _WALLSTRT  FROM  ACTI  ITEM=TIME WALL  VALUE= 0.250277778    

 TITLE= 
 liverun--Static Structural (A5)                                               


 SET PARAMETER DIMENSIONS ON  _WB_PROJECTSCRATCH_DIR
  TYPE=STRI  DIMENSIONS=      248        1        1

 PARAMETER _WB_PROJECTSCRATCH_DIR(1) = C:\Users\mende\Documents\repos\team_18\team challenge 2\Live run\ansys\_ProjectScratch\ScrA1F7\

 SET PARAMETER DIMENSIONS ON  _WB_SOLVERFILES_DIR
  TYPE=STRI  DIMENSIONS=      248        1        1

 PARAMETER _WB_SOLVERFILES_DIR(1) = C:\Users\mende\Documents\repos\team_18\team challenge 2\Live run\ansys\liverun_files\dp8\SYS\MECH\

 SET PARAMETER DIMENSIONS ON  _WB_USERFILES_DIR
  TYPE=STRI  DIMENSIONS=      248        1        1

 PARAMETER _WB_USERFILES_DIR(1) = C:\Users\mende\Documents\repos\team_18\team challenge 2\Live run\ansys\liverun_files\user_files\
 --- Data in consistent NMM units. See Solving Units in the help system for more

 MPA UNITS SPECIFIED FOR INTERNAL    
  LENGTH      = MILLIMETERS (mm)
  MASS        = TONNE (Mg)
  TIME        = SECONDS (sec)
  TEMPERATURE = CELSIUS (C)
  TOFFSET     = 273.0
  FORCE       = NEWTON (N)
  HEAT        = MILLIJOULES (mJ)

 INPUT  UNITS ARE ALSO SET TO MPA 

 *** ANSYS - ENGINEERING ANALYSIS SYSTEM  RELEASE 2020 R1          20.1     ***
 ANSYS Academic Research                           
 00608699  VERSION=WINDOWS x64   00:15:01  OCT 07, 2020 CP=      0.219

 liverun--Static Structural (A5)                                               



          ***** ANSYS ANALYSIS DEFINITION (PREP7) *****
 *********** Nodes for the whole assembly ***********
 *********** Elements for Body 1 "3-1" ***********
 *********** Elements for Body 2 "2-1" ***********
 *********** Elements for Body 3 "4-1" ***********
 *********** Elements for Body 4 "1-1" ***********
 *********** Send User Defined Coordinate System(s) ***********
 *********** Set Reference Temperature ***********
 *********** Send Materials ***********
 *********** Create Contact "Contact Region" ***********
             Real Constant Set For Above Contact Is 6 & 5
 *********** Create Contact "Contact Region 2" ***********
             Real Constant Set For Above Contact Is 8 & 7
 *********** Create Contact "Contact Region 3" ***********
             Real Constant Set For Above Contact Is 10 & 9
 *********** Fixed Supports ***********
 *********** Define Force Using Surface Effect Elements ***********


 ***** ROUTINE COMPLETED *****  CP =         0.281


 --- Number of total nodes = 8542
 --- Number of contact elements = 344
 --- Number of spring elements = 0
 --- Number of bearing elements = 0
 --- Number of solid elements = 3629
 --- Number of condensed parts = 0
 --- Number of total elements = 3973

 *GET  _WALLBSOL  FROM  ACTI  ITEM=TIME WALL  VALUE= 0.250555556    
 ****************************************************************************
 *************************    SOLUTION       ********************************
 ****************************************************************************

 *****  ANSYS SOLUTION ROUTINE  *****


 PERFORM A STATIC ANALYSIS
  THIS WILL BE A NEW ANALYSIS

 PARAMETER _THICKRATIO =     0.000000000    

 USE SPARSE MATRIX DIRECT SOLVER

 CONTACT INFORMATION PRINTOUT LEVEL       1

 NLDIAG: Nonlinear diagnostics CONT option is set to ON. 
         Writing frequency : each ITERATION.

 DO NOT SAVE ANY RESTART FILES AT ALL
 ****************************************************
 ******************* SOLVE FOR LS 1 OF 1 ****************

 SELECT       FOR ITEM=TYPE COMPONENT=    
  IN RANGE        11 TO         11 STEP          1

         16  ELEMENTS (OF       3973  DEFINED) SELECTED BY  ESEL  COMMAND.

 SELECT      ALL NODES HAVING ANY ELEMENT IN ELEMENT SET.

         51 NODES (OF       8542  DEFINED) SELECTED FROM
       16 SELECTED ELEMENTS BY NSLE COMMAND.

 SPECIFIED SURFACE LOAD PRES FOR ALL SELECTED ELEMENTS  LKEY =  1   KVAL = 1
     VALUES =     0.0000         0.0000         0.0000         0.0000    

 SPECIFIED SURFACE LOAD PRES FOR ALL SELECTED ELEMENTS  LKEY =  2   KVAL = 1
     VALUES =    -20.833        -20.833        -20.833        -20.833    

 SPECIFIED SURFACE LOAD PRES FOR ALL SELECTED ELEMENTS  LKEY =  3   KVAL = 1
     VALUES =     0.0000         0.0000         0.0000         0.0000    

 ALL SELECT   FOR ITEM=NODE COMPONENT=    
  IN RANGE         1 TO      10335 STEP          1

       8542  NODES (OF       8542  DEFINED) SELECTED BY NSEL  COMMAND.

 ALL SELECT   FOR ITEM=ELEM COMPONENT=    
  IN RANGE         1 TO       8715 STEP          1

       3973  ELEMENTS (OF       3973  DEFINED) SELECTED BY  ESEL  COMMAND.

 PRINTOUT RESUMED BY /GOP

 USE       1 SUBSTEPS INITIALLY THIS LOAD STEP FOR ALL  DEGREES OF FREEDOM
 FOR AUTOMATIC TIME STEPPING:
   USE      1 SUBSTEPS AS A MAXIMUM
   USE      1 SUBSTEPS AS A MINIMUM

 TIME=  1.0000    

 ERASE THE CURRENT DATABASE OUTPUT CONTROL TABLE.


 WRITE ALL  ITEMS TO THE DATABASE WITH A FREQUENCY OF NONE
   FOR ALL APPLICABLE ENTITIES

 WRITE NSOL ITEMS TO THE DATABASE WITH A FREQUENCY OF ALL 
   FOR ALL APPLICABLE ENTITIES

 WRITE RSOL ITEMS TO THE DATABASE WITH A FREQUENCY OF ALL 
   FOR ALL APPLICABLE ENTITIES

 WRITE EANG ITEMS TO THE DATABASE WITH A FREQUENCY OF ALL 
   FOR ALL APPLICABLE ENTITIES

 WRITE ETMP ITEMS TO THE DATABASE WITH A FREQUENCY OF ALL 
   FOR ALL APPLICABLE ENTITIES

 WRITE VENG ITEMS TO THE DATABASE WITH A FREQUENCY OF ALL 
   FOR ALL APPLICABLE ENTITIES

 WRITE STRS ITEMS TO THE DATABASE WITH A FREQUENCY OF ALL 
   FOR ALL APPLICABLE ENTITIES

 WRITE EPEL ITEMS TO THE DATABASE WITH A FREQUENCY OF ALL 
   FOR ALL APPLICABLE ENTITIES

 WRITE EPPL ITEMS TO THE DATABASE WITH A FREQUENCY OF ALL 
   FOR ALL APPLICABLE ENTITIES

 WRITE CONT ITEMS TO THE DATABASE WITH A FREQUENCY OF ALL 
   FOR ALL APPLICABLE ENTITIES

 *GET  ANSINTER_  FROM  ACTI  ITEM=INT        VALUE=  0.00000000    

 *IF  ANSINTER_                         ( =   0.00000     )  NE  
      0                                 ( =   0.00000     )  THEN    

 *ENDIF

 *****  ANSYS SOLVE    COMMAND  *****

 *** WARNING ***                         CP =       0.281   TIME= 00:15:02
 Element shape checking is currently inactive.  Issue SHPP,ON or         
 SHPP,WARN to reactivate, if desired.                                    

 *** NOTE ***                            CP =       0.281   TIME= 00:15:02
 The model data was checked and warning messages were found.             
  Please review output or errors file (                                  
 C:\Users\mende\Documents\repos\team_18\team challenge 2\Live            
 run\ansys\_ProjectScratch\ScrA1F7\file.err ) for these warning          
 messages.                                                               

 *** SELECTION OF ELEMENT TECHNOLOGIES FOR APPLICABLE ELEMENTS ***
      --- GIVE SUGGESTIONS AND RESET THE KEY OPTIONS ---

 ELEMENT TYPE    1 IS SOLID187. IT IS NOT ASSOCIATED WITH FULLY INCOMPRESSIBLE
 HYPERELASTIC MATERIALS. NO SUGGESTION IS AVAILABLE AND NO RESETTING IS NEEDED.

 ELEMENT TYPE    2 IS SOLID187. IT IS NOT ASSOCIATED WITH FULLY INCOMPRESSIBLE
 HYPERELASTIC MATERIALS. NO SUGGESTION IS AVAILABLE AND NO RESETTING IS NEEDED.

 ELEMENT TYPE    3 IS SOLID187. IT IS NOT ASSOCIATED WITH FULLY INCOMPRESSIBLE
 HYPERELASTIC MATERIALS. NO SUGGESTION IS AVAILABLE AND NO RESETTING IS NEEDED.

 ELEMENT TYPE    4 IS SOLID187. IT IS NOT ASSOCIATED WITH FULLY INCOMPRESSIBLE
 HYPERELASTIC MATERIALS. NO SUGGESTION IS AVAILABLE AND NO RESETTING IS NEEDED.



 *** ANSYS - ENGINEERING ANALYSIS SYSTEM  RELEASE 2020 R1          20.1     ***
 ANSYS Academic Research                           
 00608699  VERSION=WINDOWS x64   00:15:02  OCT 07, 2020 CP=      0.281

 liverun--Static Structural (A5)                                               



                       S O L U T I O N   O P T I O N S

   PROBLEM DIMENSIONALITY. . . . . . . . . . . . .3-D                  
   DEGREES OF FREEDOM. . . . . . UX   UY   UZ  
   ANALYSIS TYPE . . . . . . . . . . . . . . . . .STATIC (STEADY-STATE)
   OFFSET TEMPERATURE FROM ABSOLUTE ZERO . . . . .  273.15    
   EQUATION SOLVER OPTION. . . . . . . . . . . . .SPARSE             
   GLOBALLY ASSEMBLED MATRIX . . . . . . . . . . .SYMMETRIC  

 *** WARNING ***                         CP =       0.281   TIME= 00:15:02
 Material number 11 (used by element 8700) should normally have at least 
 one MP or one TB type command associated with it.  Output of energy by  
 material may not be available.                                          

 *** NOTE ***                            CP =       0.281   TIME= 00:15:02
 The step data was checked and warning messages were found.              
  Please review output or errors file (                                  
 C:\Users\mende\Documents\repos\team_18\team challenge 2\Live            
 run\ansys\_ProjectScratch\ScrA1F7\file.err ) for these warning          
 messages.                                                               

 *** NOTE ***                            CP =       0.281   TIME= 00:15:02
 The conditions for direct assembly have been met.  No .emat or .erot    
 files will be produced.                                                 

                      L O A D   S T E P   O P T I O N S

   LOAD STEP NUMBER. . . . . . . . . . . . . . . .     1
   TIME AT END OF THE LOAD STEP. . . . . . . . . .  1.0000    
   NUMBER OF SUBSTEPS. . . . . . . . . . . . . . .     1
   STEP CHANGE BOUNDARY CONDITIONS . . . . . . . .    NO
   PRINT OUTPUT CONTROLS . . . . . . . . . . . . .NO PRINTOUT
   DATABASE OUTPUT CONTROLS
      ITEM     FREQUENCY   COMPONENT
       ALL       NONE               
      NSOL        ALL               
      RSOL        ALL               
      EANG        ALL               
      ETMP        ALL               
      VENG        ALL               
      STRS        ALL               
      EPEL        ALL               
      EPPL        ALL               
      CONT        ALL               


 SOLUTION MONITORING INFO IS WRITTEN TO FILE= file.mntr                                                                                                                                                                                                                                                           

 *** NOTE ***                            CP =       0.328   TIME= 00:15:02
 Symmetric Deformable- deformable contact pair identified by real        
 constant set 5 and contact element type 5 has been set up.  The         
 companion pair has real constant set ID 6.  Both pairs should have the  
 same behavior.                                                          
 ANSYS will deactivate the current pair and keep its companion pair,     
 resulting in asymmetric contact.                                        
 Linear contact is defined
 Contact algorithm: Augmented Lagrange method
 Contact detection at: Gauss integration point
 Contact stiffness factor FKN                  10.000    
 The resulting initial contact stiffness      0.50552E+06
 Default penetration tolerance factor FTOLN   0.10000    
 The resulting penetration tolerance           7.9126    
 Default opening contact stiffness OPSF will be used.
 Default tangent stiffness factor FKT          1.0000    
 Use constant contact stiffness
 Default Max. friction stress TAUMAX          0.10000E+21
 Average contact surface length                47.588    
 Average contact pair depth                    79.126    
 Default pinball region factor PINB           0.25000    
 The resulting pinball region                  19.782    
 Initial penetration/gap is excluded.
 Bonded contact (always) is defined.

 *** NOTE ***                            CP =       0.328   TIME= 00:15:02
 Max.  Initial penetration 4.547473509E-13 was detected between contact  
 element 8398 and target element 8451.                                   
 ****************************************
  

 *** NOTE ***                            CP =       0.328   TIME= 00:15:02
 Symmetric Deformable- deformable contact pair identified by real        
 constant set 6 and contact element type 5 has been set up.  The         
 companion pair has real constant set ID 5.  Both pairs should have the  
 same behavior.                                                          
 ANSYS will keep the current pair and deactivate its companion pair,     
 resulting in asymmetric contact.                                        
 Linear contact is defined
 Contact algorithm: Augmented Lagrange method
 Contact detection at: Gauss integration point
 Contact stiffness factor FKN                  10.000    
 The resulting initial contact stiffness      0.50552E+06
 Default penetration tolerance factor FTOLN   0.10000    
 The resulting penetration tolerance           7.0471    
 Default opening contact stiffness OPSF will be used.
 Default tangent stiffness factor FKT          1.0000    
 Use constant contact stiffness
 Default Max. friction stress TAUMAX          0.10000E+21
 Average contact surface length                48.276    
 Average contact pair depth                    70.471    
 Default pinball region factor PINB           0.25000    
 The resulting pinball region                  17.618    
 Initial penetration/gap is excluded.
 Bonded contact (always) is defined.

 *** NOTE ***                            CP =       0.328   TIME= 00:15:02
 Max.  Initial penetration 4.547473509E-13 was detected between contact  
 element 8424 and target element 8382.                                   
 ****************************************
  

 *** NOTE ***                            CP =       0.328   TIME= 00:15:02
 Symmetric Deformable- deformable contact pair identified by real        
 constant set 7 and contact element type 7 has been set up.  The         
 companion pair has real constant set ID 8.  Both pairs should have the  
 same behavior.                                                          
 ANSYS will keep the current pair and deactivate its companion pair,     
 resulting in asymmetric contact.                                        
 Linear contact is defined
 Contact algorithm: Augmented Lagrange method
 Contact detection at: Gauss integration point
 Contact stiffness factor FKN                  10.000    
 The resulting initial contact stiffness      0.54594E+06
 Default penetration tolerance factor FTOLN   0.10000    
 The resulting penetration tolerance           7.2176    
 Default opening contact stiffness OPSF will be used.
 Default tangent stiffness factor FKT          1.0000    
 Use constant contact stiffness
 Default Max. friction stress TAUMAX          0.10000E+21
 Average contact surface length                40.132    
 Average contact pair depth                    72.176    
 Default pinball region factor PINB           0.25000    
 The resulting pinball region                  18.044    
 Initial penetration/gap is excluded.
 Bonded contact (always) is defined.

 *** NOTE ***                            CP =       0.328   TIME= 00:15:02
 Max.  Initial penetration 9.094947018E-13 was detected between contact  
 element 8503 and target element 8566.                                   
 ****************************************
  

 *** NOTE ***                            CP =       0.328   TIME= 00:15:02
 Symmetric Deformable- deformable contact pair identified by real        
 constant set 8 and contact element type 7 has been set up.  The         
 companion pair has real constant set ID 7.  Both pairs should have the  
 same behavior.                                                          
 ANSYS will deactivate the current pair and keep its companion pair,     
 resulting in asymmetric contact.                                        
 Linear contact is defined
 Contact algorithm: Augmented Lagrange method
 Contact detection at: Gauss integration point
 Contact stiffness factor FKN                  10.000    
 The resulting initial contact stiffness      0.54594E+06
 Default penetration tolerance factor FTOLN   0.10000    
 The resulting penetration tolerance           7.3268    
 Default opening contact stiffness OPSF will be used.
 Default tangent stiffness factor FKT          1.0000    
 Use constant contact stiffness
 Default Max. friction stress TAUMAX          0.10000E+21
 Average contact surface length                40.743    
 Average contact pair depth                    73.268    
 Default pinball region factor PINB           0.25000    
 The resulting pinball region                  18.317    
 Initial penetration/gap is excluded.
 Bonded contact (always) is defined.

 *** NOTE ***                            CP =       0.328   TIME= 00:15:02
 Max.  Initial penetration 9.094947018E-13 was detected between contact  
 element 8531 and target element 8480.                                   
 ****************************************
  

 *** NOTE ***                            CP =       0.328   TIME= 00:15:02
 Symmetric Deformable- deformable contact pair identified by real        
 constant set 9 and contact element type 9 has been set up.  The         
 companion pair has real constant set ID 10.  Both pairs should have     
 the same behavior.                                                      
 ANSYS will deactivate the current pair and keep its companion pair,     
 resulting in asymmetric contact.                                        
 Linear contact is defined
 Contact algorithm: Augmented Lagrange method
 Contact detection at: Gauss integration point
 Contact stiffness factor FKN                  10.000    
 The resulting initial contact stiffness      0.45689E+06
 Default penetration tolerance factor FTOLN   0.10000    
 The resulting penetration tolerance           8.7549    
 Default opening contact stiffness OPSF will be used.
 Default tangent stiffness factor FKT          1.0000    
 Use constant contact stiffness
 Default Max. friction stress TAUMAX          0.10000E+21
 Average contact surface length                53.432    
 Average contact pair depth                    87.549    
 Default pinball region factor PINB           0.25000    
 The resulting pinball region                  21.887    
 Initial penetration/gap is excluded.
 Bonded contact (always) is defined.

 *** NOTE ***                            CP =       0.328   TIME= 00:15:02
 Max.  Initial penetration 2.273736754E-13 was detected between contact  
 element 8634 and target element 8692.                                   
 ****************************************
  

 *** NOTE ***                            CP =       0.328   TIME= 00:15:02
 Symmetric Deformable- deformable contact pair identified by real        
 constant set 10 and contact element type 9 has been set up.  The        
 companion pair has real constant set ID 9.  Both pairs should have the  
 same behavior.                                                          
 ANSYS will keep the current pair and deactivate its companion pair,     
 resulting in asymmetric contact.                                        
 Linear contact is defined
 Contact algorithm: Augmented Lagrange method
 Contact detection at: Gauss integration point
 Contact stiffness factor FKN                  10.000    
 The resulting initial contact stiffness      0.45689E+06
 Default penetration tolerance factor FTOLN   0.10000    
 The resulting penetration tolerance           7.7696    
 Default opening contact stiffness OPSF will be used.
 Default tangent stiffness factor FKT          1.0000    
 Use constant contact stiffness
 Default Max. friction stress TAUMAX          0.10000E+21
 Average contact surface length                51.744    
 Average contact pair depth                    77.696    
 Default pinball region factor PINB           0.25000    
 The resulting pinball region                  19.424    
 Initial penetration/gap is excluded.
 Bonded contact (always) is defined.

 *** NOTE ***                            CP =       0.328   TIME= 00:15:02
 Max.  Initial penetration 2.273736754E-13 was detected between contact  
 element 8640 and target element 8592.                                   
 ****************************************
  
  
  

  
 *************************************************
  SUMMARY FOR CONTACT PAIR IDENTIFIED BY REAL CONSTANT SET           5

 *** NOTE ***                            CP =       0.500   TIME= 00:15:02
 Contact pair is inactive.                                               
  
 *************************************************
  SUMMARY FOR CONTACT PAIR IDENTIFIED BY REAL CONSTANT SET           6
 Max.  Penetration of -4.547473509E-13 has been detected between contact 
 element 8430 and target element 8387.                                   
  
 Max.  Geometrical penetration of -9.094947018E-13 has been detected     
 between contact element 8445 and target element 8394.                   
 For total 26 contact elements, there are 26 elements are in contact.    
 There are 26 elements are in sticking.                                  
 Contacting area 14680.                                                  
 Max.  Pinball distance 17.6176909.                                      
 One of the contact searching regions contains at least 9 target         
 elements.                                                               
 Max.  Pressure/force 2.298844111E-07.                                   
 Max.  Normal stiffness 505521.166.                                      
 Min.  Normal stiffness 505521.166.                                      
 Max.  Tangential stiffness 553447.154.                                  
 Min.  Tangential stiffness 553447.154.                                  
 *************************************************
  
 *************************************************
  SUMMARY FOR CONTACT PAIR IDENTIFIED BY REAL CONSTANT SET           7
 Max.  Penetration of -4.547473509E-13 has been detected between contact 
 element 8502 and target element 8569.                                   
  
 Max.  Geometrical gap of 9.094947018E-13 has been detected between      
 contact element 8506 and target element 8557.                           
  
 Max.  Geometrical penetration of -9.094947018E-13 has been detected     
 between contact element 8506 and target element 8557.                   
 For total 26 contact elements, there are 26 elements are in contact.    
 There are 26 elements are in sticking.                                  
 Contacting area 12080.                                                  
 Max.  Pinball distance 18.0441043.                                      
 One of the contact searching regions contains at least 9 target         
 elements.                                                               
 Max.  Pressure/force -4.965317588E-07.                                  
 Max.  Normal stiffness 545942.442.                                      
 Min.  Normal stiffness 545942.442.                                      
 Max.  Tangential stiffness 736390.962.                                  
 Min.  Tangential stiffness 736390.962.                                  
 *************************************************
  
 *************************************************
  SUMMARY FOR CONTACT PAIR IDENTIFIED BY REAL CONSTANT SET           8

 *** NOTE ***                            CP =       0.500   TIME= 00:15:02
 Contact pair is inactive.                                               
  
 *************************************************
  SUMMARY FOR CONTACT PAIR IDENTIFIED BY REAL CONSTANT SET           9

 *** NOTE ***                            CP =       0.500   TIME= 00:15:02
 Contact pair is inactive.                                               
  
 *************************************************
  SUMMARY FOR CONTACT PAIR IDENTIFIED BY REAL CONSTANT SET          10
 Max.  Penetration of -2.273736754E-13 has been detected between contact 
 element 8669 and target element 8583.                                   
  
 Max.  Geometrical penetration of -4.547473509E-13 has been detected     
 between contact element 8640 and target element 8592.                   
 For total 30 contact elements, there are 30 elements are in contact.    
 There are 30 elements are in sticking.                                  
 Contacting area 18620.                                                  
 Max.  Pinball distance 19.4240262.                                      
 One of the contact searching regions contains at least 11 target        
 elements.                                                               
 Max.  Pressure/force 1.038844091E-07.                                   
 Max.  Normal stiffness 456888.463.                                      
 Min.  Normal stiffness 456888.463.                                      
 Max.  Tangential stiffness 514527.469.                                  
 Min.  Tangential stiffness 514527.469.                                  
 *************************************************


                         ***********  PRECISE MASS SUMMARY  ***********

   TOTAL RIGID BODY MASS MATRIX ABOUT ORIGIN
               Translational mass               |   Coupled translational/rotational mass
        0.44237        0.0000        0.0000     |     0.0000        216.76       -225.62    
         0.0000       0.44237        0.0000     |    -216.76        0.0000        928.16    
         0.0000        0.0000       0.44237     |     225.62       -928.16        0.0000    
     ------------------------------------------ | ------------------------------------------
                                                |         Rotational mass (inertia)
                                                |    0.24642E+06  -0.47338E+06  -0.45480E+06
                                                |   -0.47338E+06   0.28728E+07  -0.11055E+06
                                                |   -0.45480E+06  -0.11055E+06   0.29064E+07

   TOTAL MASS = 0.44237    
     The mass principal axes coincide with the global Cartesian axes

   CENTER OF MASS (X,Y,Z)=    2098.1        510.02        490.00    

   TOTAL INERTIA ABOUT CENTER OF MASS
         25136.       0.74293      -0.31981E-03
        0.74293       0.81920E+06  -0.13322E-02
       -0.31981E-03  -0.13322E-02   0.84393E+06
     The inertia principal axes coincide with the global Cartesian axes


  *** MASS SUMMARY BY ELEMENT TYPE ***

  TYPE      MASS
     1  0.105055    
     2  0.120154    
     3  0.674944E-01
     4  0.149672    

 Range of element maximum matrix coefficients in global coordinates
 Maximum = 117323449 at element 1691.                                    
 Minimum = 2778852.24 at element 7243.                                   

   *** ELEMENT MATRIX FORMULATION TIMES
     TYPE    NUMBER   ENAME      TOTAL CP  AVE CP

        1       872  SOLID187      0.031   0.000036
        2       864  SOLID187      0.047   0.000054
        3       893  SOLID187      0.016   0.000017
        4      1000  SOLID187      0.047   0.000047
        5        52  CONTA174      0.000   0.000000
        6        52  TARGE170      0.000   0.000000
        7        52  CONTA174      0.000   0.000000
        8        52  TARGE170      0.000   0.000000
        9        60  CONTA174      0.000   0.000000
       10        60  TARGE170      0.016   0.000260
       11        16  SURF154       0.000   0.000000
 Time at end of element matrix formulation CP = 0.5.                     

 SPARSE MATRIX DIRECT SOLVER.
  Number of equations =       25275,    Maximum wavefront =    213
  Memory allocated for solver              =    60.028 MB
  Memory required for in-core solution     =    57.886 MB
  Memory required for out-of-core solution =    29.398 MB

 *** NOTE ***                            CP =       0.703   TIME= 00:15:02
 The Sparse Matrix Solver is currently running in the in-core memory     
 mode.  This memory mode uses the most amount of memory in order to      
 avoid using the hard drive as much as possible, which most often        
 results in the fastest solution time.  This mode is recommended if      
 enough physical memory is present to accommodate all of the solver      
 data.                                                                   
 curEqn=  25275  totEqn=  25275 Job CP sec=      0.812
      Factor Done= 100% Factor Wall sec=      0.063 rate=    9026.9 Mflops
 Sparse solver maximum pivot= 312634789 at node 4260 UZ.                 
 Sparse solver minimum pivot= 114.226472 at node 7717 UZ.                
 Sparse solver minimum pivot in absolute value= 114.226472 at node 7717  
 UZ.                                                                     

   *** ELEMENT RESULT CALCULATION TIMES
     TYPE    NUMBER   ENAME      TOTAL CP  AVE CP

        1       872  SOLID187      0.031   0.000036
        2       864  SOLID187      0.031   0.000036
        3       893  SOLID187      0.047   0.000052
        4      1000  SOLID187      0.031   0.000031
        5        52  CONTA174      0.000   0.000000
        7        52  CONTA174      0.000   0.000000
        9        60  CONTA174      0.000   0.000000
       11        16  SURF154       0.000   0.000000

   *** NODAL LOAD CALCULATION TIMES
     TYPE    NUMBER   ENAME      TOTAL CP  AVE CP

        1       872  SOLID187      0.016   0.000018
        2       864  SOLID187      0.000   0.000000
        3       893  SOLID187      0.000   0.000000
        4      1000  SOLID187      0.031   0.000031
        5        52  CONTA174      0.000   0.000000
        7        52  CONTA174      0.000   0.000000
        9        60  CONTA174      0.000   0.000000
       11        16  SURF154       0.000   0.000000
 *** LOAD STEP     1   SUBSTEP     1  COMPLETED.    CUM ITER =      1
 *** TIME =   1.00000         TIME INC =   1.00000      NEW TRIANG MATRIX


 *** ANSYS BINARY FILE STATISTICS
  BUFFER SIZE USED= 16384
        2.562 MB WRITTEN ON ELEMENT SAVED DATA FILE: file.esav
       10.688 MB WRITTEN ON ASSEMBLED MATRIX FILE: file.full
        2.750 MB WRITTEN ON RESULTS FILE: file.rst
 *************** Write FE CONNECTORS *********

 WRITE OUT CONSTRAINT EQUATIONS TO FILE= file.ce                                                                                                                                                                                                                                                             
 ****************************************************
 *************** FINISHED SOLVE FOR LS 1 *************

 *GET  _WALLASOL  FROM  ACTI  ITEM=TIME WALL  VALUE= 0.250555556    

 PRINTOUT RESUMED BY /GOP

 FINISH SOLUTION PROCESSING


 ***** ROUTINE COMPLETED *****  CP =         1.109



 *** ANSYS - ENGINEERING ANALYSIS SYSTEM  RELEASE 2020 R1          20.1     ***
 ANSYS Academic Research                           
 00608699  VERSION=WINDOWS x64   00:15:02  OCT 07, 2020 CP=      1.109

 liverun--Static Structural (A5)                                               



          ***** ANSYS RESULTS INTERPRETATION (POST1) *****

 *** NOTE ***                            CP =       1.109   TIME= 00:15:02
 Reading results into the database (SET command) will update the current 
 displacement and force boundary conditions in the database with the     
 values from the results file for that load set.  Note that any          
 subsequent solutions will use these values unless action is taken to    
 either SAVE the current values or not overwrite them (/EXIT,NOSAVE).    

 Set Encoding of XML File to:ISO-8859-1

 Set Output of XML File to:
     PARM,     ,     ,     ,     ,     ,     ,     ,     ,     ,     ,     ,
         ,     ,     ,     ,     ,     ,     ,

 DATABASE WRITTEN ON FILE  parm.xml                                                                                                                                                                                                                                                            

 EXIT THE ANSYS POST1 DATABASE PROCESSOR


 ***** ROUTINE COMPLETED *****  CP =         1.109



 PRINTOUT RESUMED BY /GOP

 *GET  _WALLDONE  FROM  ACTI  ITEM=TIME WALL  VALUE= 0.250555556    

 PARAMETER _PREPTIME =     1.000000000    

 PARAMETER _SOLVTIME =     0.000000000    

 PARAMETER _POSTTIME =     0.000000000    

 PARAMETER _TOTALTIM =     1.000000000    

 *GET  _DLBRATIO  FROM  ACTI  ITEM=SOLU DLBR  VALUE=  0.00000000    

 *GET  _COMBTIME  FROM  ACTI  ITEM=SOLU COMB  VALUE=  0.00000000    
 --- Number of total nodes = 8542
 --- Number of total elements = 3973
 --- Element load balance ratio = 0
 --- Time to combine distributed files = 0

 EXIT ANSYS WITHOUT SAVING DATABASE


 NUMBER OF WARNING MESSAGES ENCOUNTERED=          2
 NUMBER OF ERROR   MESSAGES ENCOUNTERED=          0

+--------------------- A N S Y S   S T A T I S T I C S ------------------------+

Release: 2020 R1            Build: 20.1       Update: UP20191203   Platform: WINDOWS x64 
Date Run: 10/07/2020   Time: 00:15     Process ID: 18996
Operating System: Windows 10  (Build: 19042)

Processor Model: Intel(R) Core(TM) i7-1065G7 CPU @ 1.30GHz

Compiler: Intel(R) FORTRAN Compiler Version 19.0.0  (Build: 20190206)
          Intel(R) C/C++ Compiler Version 19.0.0  (Build: 20190206)
          Intel(R) Math Kernel Library Version 2019.0.3 Product Build 20190125

Number of machines requested            :    1
Total number of cores available         :    8
Number of physical cores available      :    4
Number of processes requested           :    1
Number of threads per process requested :    1
Total number of cores requested         :    1 (Shared Memory Parallel)                    

GPU Acceleration: Not Requested

Job Name: file
Input File: dummy.dat
Working Directory: C:\Users\mende\Documents\repos\team_18\team challenge 2\Live run\ansys\_ProjectScratch\ScrA1F7

Total CPU time for main thread                    :        1.2 seconds
Total CPU time summed for all threads             :        1.1 seconds

Elapsed time spent obtaining a license            :        3.4 seconds
Elapsed time spent pre-processing model (/PREP7)  :        0.1 seconds
Elapsed time spent solution - preprocessing       :        0.1 seconds
Elapsed time spent computing solution             :        0.8 seconds
Elapsed time spent solution - postprocessing      :        0.0 seconds
Elapsed time spent post-processing model (/POST1) :        0.0 seconds
 
Equation solver used                              :            Sparse (symmetric)
Equation solver computational rate                :        7.4 Gflops

Maximum total memory used                         :      159.0 MB
Maximum total memory allocated                    :     2112.0 MB
Total physical memory available                   :         16 GB

Total amount of I/O written to disk               :        0.0 GB
Total amount of I/O read from disk                :        0.0 GB

+------------------ E N D   A N S Y S   S T A T I S T I C S -------------------+


 *---------------------------------------------------------------------------*
 |                                                                           |
 |                            ANSYS RUN COMPLETED                            |
 |                                                                           |
 |---------------------------------------------------------------------------|
 |                                                                           |
 | Ansys 2020 R1               Build 20.1         UP20191203     WINDOWS x64 |
 |                                                                           |
 |---------------------------------------------------------------------------|
 |                                                                           |
 | Database Requested(-db)  1024 MB    Scratch Memory Requested      1024 MB |
 | Maximum Database Used       6 MB    Maximum Scratch Memory Used    153 MB |
 |                                                                           |
 |---------------------------------------------------------------------------|
 |                                                                           |
 |        CP Time      (sec) =          1.109       Time  =  00:15:03        |
 |        Elapsed Time (sec) =          6.000       Date  =  10/07/2020      |
 |                                                                           |
 *---------------------------------------------------------------------------*
